
 OpenBabel09181215153D

  3  2  0  0  0  0  0  0  0  0999 V2000
    1.0694    0.0240   -0.0674 C   0  0  0  0  0  0  0  0  0  0  0  0
    2.5624    0.0449   -0.0575 C   0  0  0  0  0  0  0  0  0  0  0  0
    3.2270    1.0101    0.3144 O   0  0  0  0  0  0  0  0  0  0  0  0
  1  2  1  0  0  0  0
  2  3  2  0  0  0  0
M  END
>  <ActivityOutcome_CPDBAS_Hamster>
active

$$$$

 OpenBabel09181215153D

 17 19  0  0  0  0  0  0  0  0999 V2000
    0.5043   -0.3844    0.1353 C   0  0  0  0  0  0  0  0  0  0  0  0
   -0.9295   -0.5835    0.1256 C   0  0  0  0  0  0  0  0  0  0  0  0
   -1.5528    0.6332   -0.2285 C   0  0  0  0  0  0  0  0  0  0  0  0
   -2.9304    0.7422   -0.3194 C   0  0  0  0  0  0  0  0  0  0  0  0
   -3.6960   -0.3942   -0.0516 C   0  0  0  0  0  0  0  0  0  0  0  0
   -3.0821   -1.6089    0.2993 C   0  0  0  0  0  0  0  0  0  0  0  0
   -1.6898   -1.7099    0.3903 C   0  0  0  0  0  0  0  0  0  0  0  0
   -0.5109    1.7063   -0.4717 C   0  0  0  0  0  0  0  0  0  0  0  0
    0.7790    0.9526   -0.2165 C   0  0  0  0  0  0  0  0  0  0  0  0
    2.0777    1.4368   -0.2979 C   0  0  0  0  0  0  0  0  0  0  0  0
    3.1328    0.5646   -0.0194 C   0  0  0  0  0  0  0  0  0  0  0  0
    2.8538   -0.7731    0.3400 C   0  0  0  0  0  0  0  0  0  0  0  0
    1.5396   -1.2545    0.4176 C   0  0  0  0  0  0  0  0  0  0  0  0
    4.4932    0.9379   -0.0732 N   0  0  0  0  0  0  0  0  0  0  0  0
    5.0145    2.1689   -0.4258 C   0  0  0  0  0  0  0  0  0  0  0  0
    6.5230    2.2088   -0.3688 C   0  0  0  0  0  0  0  0  0  0  0  0
    4.3860    3.1648   -0.7684 O   0  0  0  0  0  0  0  0  0  0  0  0
  1  2  1  0  0  0  0
  1  9  1  0  0  0  0
  1 13  2  0  0  0  0
  2  7  1  0  0  0  0
  2  3  2  0  0  0  0
  3  4  1  0  0  0  0
  3  8  1  0  0  0  0
  4  5  2  0  0  0  0
  5  6  1  0  0  0  0
  6  7  2  0  0  0  0
  8  9  1  0  0  0  0
  9 10  2  0  0  0  0
 10 11  1  0  0  0  0
 11 12  2  0  0  0  0
 11 14  1  0  0  0  0
 12 13  1  0  0  0  0
 14 15  1  0  0  0  0
 15 17  2  0  0  0  0
 15 16  1  0  0  0  0
M  END
>  <ActivityOutcome_CPDBAS_Hamster>
active

$$$$

 OpenBabel09181215153D

 18 19  0  0  0  0  0  0  0  0999 V2000
    1.2484    0.2037   -0.0198 C   0  0  0  0  0  0  0  0  0  0  0  0
    0.3428   -0.7471    0.6778 C   0  0  0  0  0  0  0  0  0  0  0  0
   -0.9995   -0.7174    0.5777 C   0  0  0  0  0  0  0  0  0  0  0  0
    2.0371   -0.1425   -0.8904 O   0  0  0  0  0  0  0  0  0  0  0  0
    1.1815    1.4933    0.4116 N   0  0  0  0  0  0  0  0  0  0  0  0
    0.2982   -2.9303    1.8568 O   0  0  0  0  0  0  0  0  0  0  0  0
    1.1365   -3.6735    2.6162 C   0  0  0  0  0  0  0  0  0  0  0  0
    0.9444   -1.7620    1.4932 C   0  0  0  0  0  0  0  0  0  0  0  0
    2.3266   -3.0191    2.7939 C   0  0  0  0  0  0  0  0  0  0  0  0
    2.2098   -1.8054    2.0755 C   0  0  0  0  0  0  0  0  0  0  0  0
   -3.1654    0.2399    0.0256 O   0  0  0  0  0  0  0  0  0  0  0  0
   -3.6952    1.1101   -0.8662 C   0  0  0  0  0  0  0  0  0  0  0  0
   -1.8025    0.1585   -0.2079 C   0  0  0  0  0  0  0  0  0  0  0  0
   -2.7342    1.6306   -1.6897 C   0  0  0  0  0  0  0  0  0  0  0  0
   -1.5263    1.0054   -1.2822 C   0  0  0  0  0  0  0  0  0  0  0  0
   -5.1068    1.3162   -0.7966 N   0  3  0  0  0  0  0  0  0  0  0  0
   -5.7510    0.6498    0.0235 O   0  5  0  0  0  0  0  0  0  0  0  0
   -5.5755    2.1574   -1.5758 O   0  0  0  0  0  0  0  0  0  0  0  0
  1  4  2  0  0  0  0
  1  5  1  0  0  0  0
  1  2  1  0  0  0  0
  2  8  1  0  0  0  0
  2  3  2  0  0  0  0
  3 13  1  0  0  0  0
  6  7  1  0  0  0  0
  6  8  1  0  0  0  0
  7  9  2  0  0  0  0
  8 10  2  0  0  0  0
  9 10  1  0  0  0  0
 11 12  1  0  0  0  0
 11 13  1  0  0  0  0
 12 14  2  0  0  0  0
 12 16  1  0  0  0  0
 13 15  2  0  0  0  0
 14 15  1  0  0  0  0
 16 18  2  0  0  0  0
 16 17  1  0  0  0  0
M  CHG  2  16   1  17  -1
M  END
>  <ActivityOutcome_CPDBAS_Hamster>
active

$$$$

 OpenBabel09181215153D

  6  6  0  0  0  0  0  0  0  0999 V2000
    0.9374   -0.5941    0.0891 C   0  0  0  0  0  0  0  0  0  0  0  0
   -0.3122   -1.1292    0.0418 N   0  0  0  0  0  0  0  0  0  0  0  0
   -1.0848   -0.0702   -0.0119 C   0  0  0  0  0  0  0  0  0  0  0  0
   -0.3140    1.0476   -0.0100 N   0  0  0  0  0  0  0  0  0  0  0  0
    0.9889    0.7334    0.0360 N   0  0  0  0  0  0  0  0  0  0  0  0
    1.9812   -1.4127    0.1466 N   0  0  0  0  0  0  0  0  0  0  0  0
  1  2  1  0  0  0  0
  1  5  2  0  0  0  0
  1  6  1  0  0  0  0
  2  3  2  0  0  0  0
  3  4  1  0  0  0  0
  4  5  1  0  0  0  0
M  END
>  <ActivityOutcome_CPDBAS_Hamster>
inactive

$$$$

 OpenBabel09181215153D

 13 13  0  0  0  0  0  0  0  0999 V2000
    0.8013    0.2590    0.0116 O   0  0  0  0  0  0  0  0  0  0  0  0
    2.1606    0.1777   -0.1114 C   0  0  0  0  0  0  0  0  0  0  0  0
    2.8904    1.3685   -0.1510 C   0  0  0  0  0  0  0  0  0  0  0  0
    4.2752    1.3289   -0.2757 C   0  0  0  0  0  0  0  0  0  0  0  0
    4.9364    0.1078   -0.3618 C   0  0  0  0  0  0  0  0  0  0  0  0
    4.1953   -1.0797   -0.3204 C   0  0  0  0  0  0  0  0  0  0  0  0
    2.7861   -1.0820   -0.1937 C   0  0  0  0  0  0  0  0  0  0  0  0
    1.9865   -2.4047   -0.1480 C   0  0  0  0  0  0  0  0  0  0  0  0
    0.9933   -2.4751   -1.3285 C   0  0  0  0  0  0  0  0  0  0  0  0
    2.8716   -3.6734   -0.2530 C   0  0  0  0  0  0  0  0  0  0  0  0
    1.2212   -2.5245    1.1886 C   0  0  0  0  0  0  0  0  0  0  0  0
    6.2960    0.2072   -0.4819 O   0  0  0  0  0  0  0  0  0  0  0  0
    7.0279   -1.0070   -0.5859 C   0  0  0  0  0  0  0  0  0  0  0  0
  1  2  1  0  0  0  0
  2  3  2  0  0  0  0
  2  7  1  0  0  0  0
  3  4  1  0  0  0  0
  4  5  2  0  0  0  0
  5  6  1  0  0  0  0
  5 12  1  0  0  0  0
  6  7  2  0  0  0  0
  7  8  1  0  0  0  0
  8 11  1  0  0  0  0
  8 10  1  0  0  0  0
  8  9  1  0  0  0  0
 12 13  1  0  0  0  0
M  END
>  <ActivityOutcome_CPDBAS_Hamster>
inactive

$$$$

 OpenBabel09181215153D

  3  0  0  0  0  0  0  0  0  0999 V2000
    2.1375    1.5146   -1.1003 Cl  0  5  0  0  0  0  0  0  0  0  0  0
    2.3733   -1.8296   -1.2961 Cd  0  2  0  0  0  0  0  0  0  0  0  0
    0.0595   -1.0914    1.0233 Cl  0  5  0  0  0  0  0  0  0  0  0  0
M  CHG  3   1  -1   2   2   3  -1
M  END
>  <ActivityOutcome_CPDBAS_Hamster>
inactive

$$$$

 OpenBabel09181215163D

  6  4  0  0  0  0  0  0  0  0999 V2000
    1.3964   -0.6829   -0.3307 O   0  0  0  0  0  0  0  0  0  0  0  0
    2.7598   -0.1684    0.1535 S   0  0  0  0  0  0  0  0  0  0  0  0
    2.4434    0.6034    1.4433 O   0  0  0  0  0  0  0  0  0  0  0  0
    3.7657   -1.5070    0.5300 O   0  5  0  0  0  0  0  0  0  0  0  0
    3.3985    0.9182   -1.0114 O   0  5  0  0  0  0  0  0  0  0  0  0
   -0.5710    1.1817    0.9175 Cd  0  2  0  0  0  0  0  0  0  0  0  0
  1  2  2  0  0  0  0
  2  5  1  0  0  0  0
  2  4  1  0  0  0  0
  2  3  2  0  0  0  0
M  CHG  3   4  -1   5  -1   6   2
M  END
>  <ActivityOutcome_CPDBAS_Hamster>
inactive

$$$$

 OpenBabel09181215163D

 21 22  0  0  0  0  0  0  0  0999 V2000
    2.8682   -0.1003   -4.4783 Cl  0  0  0  0  0  0  0  0  0  0  0  0
    3.7118   -0.1597   -2.9805 C   0  0  0  0  0  0  0  0  0  0  0  0
    3.9737   -1.3655   -2.3841 C   0  0  0  0  0  0  0  0  0  0  0  0
    4.6856   -1.3018   -1.2113 C   0  0  0  0  0  0  0  0  0  0  0  0
    5.1268   -0.1374   -0.7172 N   0  0  0  0  0  0  0  0  0  0  0  0
    4.7393    0.9876   -1.3466 C   0  0  0  0  0  0  0  0  0  0  0  0
    4.0970    1.0312   -2.5177 N   0  0  0  0  0  0  0  0  0  0  0  0
    5.2593    2.5356   -0.6520 S   0  0  0  0  0  0  0  0  0  0  0  0
    4.6077    2.3165    1.0382 C   0  0  0  0  0  0  0  0  0  0  0  0
    3.0771    2.3035    0.9345 C   0  0  0  0  0  0  0  0  0  0  0  0
    2.5491    1.1746    0.7103 O   0  0  0  0  0  0  0  0  0  0  0  0
    2.5119    3.4126    1.1645 O   0  5  0  0  0  0  0  0  0  0  0  0
    5.0797   -2.4481   -0.5075 N   0  0  0  0  0  0  0  0  0  0  0  0
    4.4149   -3.6775   -0.2967 C   0  0  0  0  0  0  0  0  0  0  0  0
    3.0257   -3.7970   -0.4405 C   0  0  0  0  0  0  0  0  0  0  0  0
    2.3810   -5.0113   -0.2141 C   0  0  0  0  0  0  0  0  0  0  0  0
    3.1127   -6.1217    0.1919 C   0  0  0  0  0  0  0  0  0  0  0  0
    4.4982   -6.0319    0.3862 C   0  0  0  0  0  0  0  0  0  0  0  0
    5.1620   -4.8095    0.1181 C   0  0  0  0  0  0  0  0  0  0  0  0
    6.6530   -4.6902    0.3307 C   0  0  0  0  0  0  0  0  0  0  0  0
    5.2402   -7.2528    0.8595 C   0  0  0  0  0  0  0  0  0  0  0  0
  1  2  1  0  0  0  0
  2  3  2  0  0  0  0
  2  7  1  0  0  0  0
  3  4  1  0  0  0  0
  4  5  2  0  0  0  0
  4 13  1  0  0  0  0
  5  6  1  0  0  0  0
  6  7  2  0  0  0  0
  6  8  1  0  0  0  0
  8  9  1  0  0  0  0
  9 10  1  0  0  0  0
 10 12  1  0  0  0  0
 10 11  2  0  0  0  0
 13 14  1  0  0  0  0
 14 19  1  0  0  0  0
 14 15  2  0  0  0  0
 15 16  1  0  0  0  0
 16 17  2  0  0  0  0
 17 18  1  0  0  0  0
 18 19  2  0  0  0  0
 18 21  1  0  0  0  0
 19 20  1  0  0  0  0
M  CHG  1  12  -1
M  END
>  <ActivityOutcome_CPDBAS_Hamster>
inactive

$$$$

 OpenBabel09181215163D

  4  3  0  0  0  0  0  0  0  0999 V2000
    1.1363    0.0442   -0.0292 Cl  0  0  0  0  0  0  0  0  0  0  0  0
    2.9053   -0.0212    0.0217 C   0  0  0  0  0  0  0  0  0  0  0  0
    3.4193    1.2035   -0.4785 O   0  0  0  0  0  0  0  0  0  0  0  0
    4.8387    1.2139   -0.4638 C   0  0  0  0  0  0  0  0  0  0  0  0
  1  2  1  0  0  0  0
  2  3  1  0  0  0  0
  3  4  1  0  0  0  0
M  END
>  <ActivityOutcome_CPDBAS_Hamster>
active

$$$$

 OpenBabel09181215163D

  5  4  0  0  0  0  0  0  0  0999 V2000
    0.9861   -0.0568    0.1902 C   0  0  0  0  0  0  0  0  0  0  0  0
    0.2802   -1.1845   -0.3871 C   0  0  0  0  0  0  0  0  0  0  0  0
    0.4111    1.1469    0.3155 C   0  0  0  0  0  0  0  0  0  0  0  0
    0.7507   -2.4273   -0.5618 C   0  0  0  0  0  0  0  0  0  0  0  0
    2.6193   -0.2442    0.7413 Cl  0  0  0  0  0  0  0  0  0  0  0  0
  1  5  1  0  0  0  0
  1  3  2  0  0  0  0
  1  2  1  0  0  0  0
  2  4  2  0  0  0  0
M  END
>  <ActivityOutcome_CPDBAS_Hamster>
inactive

$$$$

 OpenBabel09181215163D

 21 22  0  0  0  0  0  0  0  0999 V2000
    0.0864   -0.0482    0.7350 C   0  0  0  0  0  0  0  0  0  0  0  0
    0.9575    0.3097   -0.5318 C   0  0  0  0  0  0  0  0  0  0  0  0
    0.4068    1.4293   -1.2874 O   0  0  0  0  0  0  0  0  0  0  0  0
   -1.6831    5.6824   -3.0096 C   0  0  0  0  0  0  0  0  0  0  0  0
   -2.2942    6.7437   -3.8438 C   0  0  0  0  0  0  0  0  0  0  0  0
   -0.8732   -0.8538    0.5549 O   0  0  0  0  0  0  0  0  0  0  0  0
   -1.5904    7.9176   -4.1713 C   0  0  0  0  0  0  0  0  0  0  0  0
   -0.8437    5.9908   -1.9237 C   0  0  0  0  0  0  0  0  0  0  0  0
   -3.6058    6.6181   -4.3416 C   0  0  0  0  0  0  0  0  0  0  0  0
   -1.9271    4.3217   -3.2631 C   0  0  0  0  0  0  0  0  0  0  0  0
    0.4233    0.5413    1.8062 O   0  5  0  0  0  0  0  0  0  0  0  0
    0.0265    2.5535   -0.4919 C   0  0  0  0  0  0  0  0  0  0  0  0
   -3.4642    8.7636   -5.4374 C   0  0  0  0  0  0  0  0  0  0  0  0
   -0.5252    3.6377   -1.3951 C   0  0  0  0  0  0  0  0  0  0  0  0
   -2.1690    8.9222   -4.9563 C   0  0  0  0  0  0  0  0  0  0  0  0
   -4.1859    7.6145   -5.1357 C   0  0  0  0  0  0  0  0  0  0  0  0
   -1.3687    3.3177   -2.4639 C   0  0  0  0  0  0  0  0  0  0  0  0
   -0.2732    4.9869   -1.1289 C   0  0  0  0  0  0  0  0  0  0  0  0
   -4.1750    9.9933   -6.4086 Cl  0  0  0  0  0  0  0  0  0  0  0  0
    2.4053    0.6231   -0.1414 C   0  0  0  0  0  0  0  0  0  0  0  0
    0.9565   -0.8745   -1.5030 C   0  0  0  0  0  0  0  0  0  0  0  0
  1 11  1  0  0  0  0
  1  6  2  0  0  0  0
  1  2  1  0  0  0  0
  2 21  1  0  0  0  0
  2 20  1  0  0  0  0
  2  3  1  0  0  0  0
  3 12  1  0  0  0  0
  4  8  2  0  0  0  0
  4 10  1  0  0  0  0
  4  5  1  0  0  0  0
  5  7  1  0  0  0  0
  5  9  2  0  0  0  0
  7 15  2  0  0  0  0
  8 18  1  0  0  0  0
  9 16  1  0  0  0  0
 10 17  2  0  0  0  0
 12 14  1  0  0  0  0
 13 16  2  0  0  0  0
 13 15  1  0  0  0  0
 13 19  1  0  0  0  0
 14 17  1  0  0  0  0
 14 18  2  0  0  0  0
M  CHG  1  11  -1
M  END
>  <ActivityOutcome_CPDBAS_Hamster>
inactive

$$$$

 OpenBabel09181215163D

 11 12  0  0  0  0  0  0  0  0999 V2000
    9.7077   -4.0449    1.3435 O   0  0  0  0  0  0  0  0  0  0  0  0
    8.9516   -3.1187    1.0730 C   0  0  0  0  0  0  0  0  0  0  0  0
    9.3287   -2.0673    0.2493 O   0  0  0  0  0  0  0  0  0  0  0  0
    8.4385   -1.0143   -0.0386 C   0  0  0  0  0  0  0  0  0  0  0  0
    7.1502   -0.9976    0.4929 C   0  0  0  0  0  0  0  0  0  0  0  0
    6.3051    0.0691    0.1805 C   0  0  0  0  0  0  0  0  0  0  0  0
    6.7562    1.0976   -0.6536 C   0  0  0  0  0  0  0  0  0  0  0  0
    8.0506    1.0642   -1.1784 C   0  0  0  0  0  0  0  0  0  0  0  0
    8.8998    0.0029   -0.8709 C   0  0  0  0  0  0  0  0  0  0  0  0
    6.7295   -2.0901    1.3542 C   0  0  0  0  0  0  0  0  0  0  0  0
    7.5840   -3.0826    1.6210 C   0  0  0  0  0  0  0  0  0  0  0  0
  1  2  2  0  0  0  0
  2 11  1  0  0  0  0
  2  3  1  0  0  0  0
  3  4  1  0  0  0  0
  4  5  2  0  0  0  0
  4  9  1  0  0  0  0
  5 10  1  0  0  0  0
  5  6  1  0  0  0  0
  6  7  2  0  0  0  0
  7  8  1  0  0  0  0
  8  9  2  0  0  0  0
 10 11  2  0  0  0  0
M  END
>  <ActivityOutcome_CPDBAS_Hamster>
inactive

$$$$

 OpenBabel09181215163D

 18 19  0  0  0  0  0  0  0  0999 V2000
    1.3154   -0.7449   -0.8119 Cl  0  0  0  0  0  0  0  0  0  0  0  0
    2.9587   -0.4099   -0.3404 C   0  0  0  0  0  0  0  0  0  0  0  0
    3.2791    0.5030    0.6056 C   0  0  0  0  0  0  0  0  0  0  0  0
    4.7007    0.7375    0.9589 C   0  0  0  0  0  0  0  0  0  0  0  0
    5.3075   -0.0087    1.9778 C   0  0  0  0  0  0  0  0  0  0  0  0
    6.6453    0.2164    2.3137 C   0  0  0  0  0  0  0  0  0  0  0  0
    7.3760    1.1880    1.6329 C   0  0  0  0  0  0  0  0  0  0  0  0
    6.7823    1.9373    0.6186 C   0  0  0  0  0  0  0  0  0  0  0  0
    5.4450    1.7135    0.2817 C   0  0  0  0  0  0  0  0  0  0  0  0
    9.0225    1.4651    2.0473 Cl  0  0  0  0  0  0  0  0  0  0  0  0
    2.2099    1.2701    1.2902 C   0  0  0  0  0  0  0  0  0  0  0  0
    1.7689    2.4920    0.7633 C   0  0  0  0  0  0  0  0  0  0  0  0
    0.7655    3.2161    1.4121 C   0  0  0  0  0  0  0  0  0  0  0  0
    0.2035    2.7213    2.5873 C   0  0  0  0  0  0  0  0  0  0  0  0
    0.6352    1.5082    3.1212 C   0  0  0  0  0  0  0  0  0  0  0  0
    1.6383    0.7828    2.4739 C   0  0  0  0  0  0  0  0  0  0  0  0
   -1.0316    3.6141    3.3859 Cl  0  0  0  0  0  0  0  0  0  0  0  0
    4.1522   -1.3500   -1.1903 Cl  0  0  0  0  0  0  0  0  0  0  0  0
  1  2  1  0  0  0  0
  2 18  1  0  0  0  0
  2  3  2  0  0  0  0
  3 11  1  0  0  0  0
  3  4  1  0  0  0  0
  4  5  2  0  0  0  0
  4  9  1  0  0  0  0
  5  6  1  0  0  0  0
  6  7  2  0  0  0  0
  7  8  1  0  0  0  0
  7 10  1  0  0  0  0
  8  9  2  0  0  0  0
 11 12  2  0  0  0  0
 11 16  1  0  0  0  0
 12 13  1  0  0  0  0
 13 14  2  0  0  0  0
 14 15  1  0  0  0  0
 14 17  1  0  0  0  0
 15 16  2  0  0  0  0
M  END
>  <ActivityOutcome_CPDBAS_Hamster>
active

$$$$

 OpenBabel09181215163D

 19 20  0  0  0  0  0  0  0  0999 V2000
    1.7800    0.3061    1.7228 Cl  0  0  0  0  0  0  0  0  0  0  0  0
    2.5845    0.2899    0.1144 C   0  0  0  0  0  0  0  0  0  0  0  0
    3.6289   -0.8721   -0.0818 C   0  0  0  0  0  0  0  0  0  0  0  0
    5.0044   -0.7648    0.6072 C   0  0  0  0  0  0  0  0  0  0  0  0
    6.1094   -1.3799   -0.0180 C   0  0  0  0  0  0  0  0  0  0  0  0
    7.3798   -1.3509    0.5626 C   0  0  0  0  0  0  0  0  0  0  0  0
    7.5658   -0.7098    1.7821 C   0  0  0  0  0  0  0  0  0  0  0  0
    6.4910   -0.1024    2.4226 C   0  0  0  0  0  0  0  0  0  0  0  0
    5.2174   -0.1332    1.8420 C   0  0  0  0  0  0  0  0  0  0  0  0
    9.1256   -0.6755    2.5046 Cl  0  0  0  0  0  0  0  0  0  0  0  0
    3.0353   -2.2802    0.1043 C   0  0  0  0  0  0  0  0  0  0  0  0
    2.9375   -2.8806    1.3720 C   0  0  0  0  0  0  0  0  0  0  0  0
    2.3992   -4.1618    1.5168 C   0  0  0  0  0  0  0  0  0  0  0  0
    1.9510   -4.8570    0.3979 C   0  0  0  0  0  0  0  0  0  0  0  0
    2.0399   -4.2830   -0.8667 C   0  0  0  0  0  0  0  0  0  0  0  0
    2.5826   -3.0032   -1.0138 C   0  0  0  0  0  0  0  0  0  0  0  0
    1.2878   -6.4335    0.5776 Cl  0  0  0  0  0  0  0  0  0  0  0  0
    1.2598    0.1737   -1.1243 Cl  0  0  0  0  0  0  0  0  0  0  0  0
    3.3466    1.9085   -0.1499 Cl  0  0  0  0  0  0  0  0  0  0  0  0
  1  2  1  0  0  0  0
  2 19  1  0  0  0  0
  2 18  1  0  0  0  0
  2  3  1  0  0  0  0
  3 11  1  0  0  0  0
  3  4  1  0  0  0  0
  4  5  2  0  0  0  0
  4  9  1  0  0  0  0
  5  6  1  0  0  0  0
  6  7  2  0  0  0  0
  7  8  1  0  0  0  0
  7 10  1  0  0  0  0
  8  9  2  0  0  0  0
 11 12  2  0  0  0  0
 11 16  1  0  0  0  0
 12 13  1  0  0  0  0
 13 14  2  0  0  0  0
 14 15  1  0  0  0  0
 14 17  1  0  0  0  0
 15 16  2  0  0  0  0
M  END
>  <ActivityOutcome_CPDBAS_Hamster>
inactive

$$$$

 OpenBabel09181215163D

  9  8  0  0  0  0  0  0  0  0999 V2000
    3.1635    1.8375   -3.4860 C   0  0  0  0  0  0  0  0  0  0  0  0
    3.4042    1.8315   -2.1679 C   0  0  0  0  0  0  0  0  0  0  0  0
    3.6169    0.5865   -1.3373 C   0  0  0  0  0  0  0  0  0  0  0  0
    4.8838    0.6018   -0.5754 N   0  0  0  0  0  0  0  0  0  0  0  0
    5.1947   -0.7597   -0.0894 C   0  0  0  0  0  0  0  0  0  0  0  0
    5.7617   -1.6318   -1.1806 C   0  0  0  0  0  0  0  0  0  0  0  0
    5.2685   -2.8227   -1.5464 C   0  0  0  0  0  0  0  0  0  0  0  0
    4.8794    1.5030    0.3886 N   0  0  0  0  0  0  0  0  0  0  0  0
    6.0328    1.7679    0.7451 O   0  0  0  0  0  0  0  0  0  0  0  0
  1  2  2  0  0  0  0
  2  3  1  0  0  0  0
  3  4  1  0  0  0  0
  4  8  1  0  0  0  0
  4  5  1  0  0  0  0
  5  6  1  0  0  0  0
  6  7  2  0  0  0  0
  8  9  2  0  0  0  0
M  END
>  <ActivityOutcome_CPDBAS_Hamster>
active

$$$$

 OpenBabel09181215163D

 19 23  0  0  0  0  0  0  0  0999 V2000
   -0.2136    1.1637    0.1358 C   0  0  0  0  0  0  0  0  0  0  0  0
   -1.5816    0.7373    0.1331 O   0  0  0  0  0  0  0  0  0  0  0  0
   -1.3374    2.1503    0.0952 C   0  0  0  0  0  0  0  0  0  0  0  0
    0.4658    1.2996   -1.2034 C   0  0  0  0  0  0  0  0  0  0  0  0
    1.2040    2.6498   -1.3670 C   0  0  0  0  0  0  0  0  0  0  0  0
   -1.2341    2.7984   -1.2633 C   0  0  0  0  0  0  0  0  0  0  0  0
   -0.7480    1.6005   -2.1380 C   0  0  0  0  0  0  0  0  0  0  0  0
    0.0208    3.6937   -1.4170 C   0  0  0  0  0  0  0  0  0  0  0  0
    2.2276    3.3462   -0.4119 C   0  0  0  0  0  0  0  0  0  0  0  0
    0.5479    4.8431   -0.4975 C   0  0  0  0  0  0  0  0  0  0  0  0
    1.7034    5.4074   -1.3315 C   0  0  0  0  0  0  0  0  0  0  0  0
    2.7090    4.5153   -1.2777 C   0  0  0  0  0  0  0  0  0  0  0  0
    4.1931    4.5593   -2.0880 Cl  0  0  0  0  0  0  0  0  0  0  0  0
    1.6268    6.8403   -2.2312 Cl  0  0  0  0  0  0  0  0  0  0  0  0
   -0.6794    5.9734    0.0158 Cl  0  0  0  0  0  0  0  0  0  0  0  0
    1.4349    4.2100    0.6217 C   0  0  0  0  0  0  0  0  0  0  0  0
    0.6405    3.3975    1.9808 Cl  0  0  0  0  0  0  0  0  0  0  0  0
    2.4830    5.4399    1.5238 Cl  0  0  0  0  0  0  0  0  0  0  0  0
    3.4542    2.2823    0.2299 Cl  0  0  0  0  0  0  0  0  0  0  0  0
  1  2  1  0  0  0  0
  1  3  1  0  0  0  0
  1  4  1  0  0  0  0
  2  3  1  0  0  0  0
  3  6  1  0  0  0  0
  4  5  1  0  0  0  0
  4  7  1  0  0  0  0
  5  9  1  0  0  0  0
  5  8  1  0  0  0  0
  6  7  1  0  0  0  0
  6  8  1  0  0  0  0
  8 10  1  0  0  0  0
  9 12  1  0  0  0  0
  9 19  1  0  0  0  0
  9 16  1  0  0  0  0
 10 11  1  0  0  0  0
 10 15  1  0  0  0  0
 10 16  1  0  0  0  0
 11 12  2  0  0  0  0
 11 14  1  0  0  0  0
 12 13  1  0  0  0  0
 16 18  1  0  0  0  0
 16 17  1  0  0  0  0
M  END
>  <ActivityOutcome_CPDBAS_Hamster>
inactive

$$$$

 OpenBabel09181215163D

  6  5  0  0  0  0  0  0  0  0999 V2000
    2.9583   -0.1639   -1.0709 O   0  0  0  0  0  0  0  0  0  0  0  0
    2.3171   -0.0805   -0.0235 C   0  0  0  0  0  0  0  0  0  0  0  0
    2.9665    0.1292    1.1996 N   0  0  0  0  0  0  0  0  0  0  0  0
    4.4176    0.0857    1.2309 C   0  0  0  0  0  0  0  0  0  0  0  0
    2.2968    0.0979    2.4895 C   0  0  0  0  0  0  0  0  0  0  0  0
    0.5744   -0.2284    0.0094 Cl  0  0  0  0  0  0  0  0  0  0  0  0
  1  2  2  0  0  0  0
  2  6  1  0  0  0  0
  2  3  1  0  0  0  0
  3  5  1  0  0  0  0
  3  4  1  0  0  0  0
M  END
>  <ActivityOutcome_CPDBAS_Hamster>
active

$$$$

 OpenBabel09181215163D

  4  3  0  0  0  0  0  0  0  0999 V2000
    0.9267   -0.0725   -0.0220 C   0  0  0  0  0  0  0  0  0  0  0  0
    2.3915   -0.0641   -0.0310 N   0  0  0  0  0  0  0  0  0  0  0  0
    2.9187    0.4636    1.2298 C   0  0  0  0  0  0  0  0  0  0  0  0
    2.8986   -1.4031   -0.2266 N   0  0  0  0  0  0  0  0  0  0  0  0
  1  2  1  0  0  0  0
  2  4  1  0  0  0  0
  2  3  1  0  0  0  0
M  END
>  <ActivityOutcome_CPDBAS_Hamster>
active

$$$$

 OpenBabel09181215163D

  6  3  0  0  0  0  0  0  0  0999 V2000
    0.8876   -0.1434    0.3175 N   0  0  0  0  0  0  0  0  0  0  0  0
    0.4120    1.1001   -0.1468 N   0  0  0  0  0  0  0  0  0  0  0  0
   -0.8863    1.3614    0.4672 C   0  0  0  0  0  0  0  0  0  0  0  0
    2.3177   -0.2281    0.0376 C   0  0  0  0  0  0  0  0  0  0  0  0
    3.2410   -0.6180    3.6658 Cl  0  0  0  0  0  0  0  0  0  0  0  0
    1.8924    2.4954   -3.4463 Cl  0  0  0  0  0  0  0  0  0  0  0  0
  1  4  1  0  0  0  0
  1  2  1  0  0  0  0
  2  3  1  0  0  0  0
M  END
>  <ActivityOutcome_CPDBAS_Hamster>
active

$$$$

 OpenBabel09181215163D

  3  2  0  0  0  0  0  0  0  0999 V2000
    0.9275   -0.0047    0.0164 C   0  0  0  0  0  0  0  0  0  0  0  0
    2.4407    0.0292    0.0448 C   0  0  0  0  0  0  0  0  0  0  0  0
    2.9627   -0.5717   -1.1324 O   0  0  0  0  0  0  0  0  0  0  0  0
  1  2  1  0  0  0  0
  2  3  1  0  0  0  0
M  END
>  <ActivityOutcome_CPDBAS_Hamster>
inactive

$$$$

 OpenBabel09181215163D

 11 10  0  0  0  0  0  0  0  0999 V2000
    3.7399   -0.0299   -1.2240 O   0  0  0  0  0  0  0  0  0  0  0  0
    4.8577    0.2151   -1.6801 C   0  0  0  0  0  0  0  0  0  0  0  0
    5.0813    0.5046   -3.0253 N   0  0  0  0  0  0  0  0  0  0  0  0
    3.9331    0.6165   -3.9222 C   0  0  0  0  0  0  0  0  0  0  0  0
    3.2541    1.9760   -3.8107 C   0  0  0  0  0  0  0  0  0  0  0  0
    6.3696    0.8312   -3.4713 N   0  0  0  0  0  0  0  0  0  0  0  0
    6.4377    1.1333   -4.6666 O   0  0  0  0  0  0  0  0  0  0  0  0
    5.9651    0.2218   -0.8590 N   0  0  0  0  0  0  0  0  0  0  0  0
    5.8565    0.0354    0.5803 C   0  0  0  0  0  0  0  0  0  0  0  0
    5.7689   -1.4394    0.9653 C   0  0  0  0  0  0  0  0  0  0  0  0
    6.9540   -2.1223    0.5555 O   0  0  0  0  0  0  0  0  0  0  0  0
  1  2  2  0  0  0  0
  2  8  1  0  0  0  0
  2  3  1  0  0  0  0
  3  6  1  0  0  0  0
  3  4  1  0  0  0  0
  4  5  1  0  0  0  0
  6  7  2  0  0  0  0
  8  9  1  0  0  0  0
  9 10  1  0  0  0  0
 10 11  1  0  0  0  0
M  END
>  <ActivityOutcome_CPDBAS_Hamster>
active

$$$$

 OpenBabel09181215163D

 12 11  0  0  0  0  0  0  0  0999 V2000
    1.4682   -0.5916   -0.1403 O   0  0  0  0  0  0  0  0  0  0  0  0
    2.5569   -0.0154   -0.1138 C   0  0  0  0  0  0  0  0  0  0  0  0
    2.7901    1.2055   -0.7476 N   0  0  0  0  0  0  0  0  0  0  0  0
    1.7100    1.8324   -1.5051 C   0  0  0  0  0  0  0  0  0  0  0  0
    0.8046    2.6844   -0.6273 C   0  0  0  0  0  0  0  0  0  0  0  0
    3.9814    1.9019   -0.4945 N   0  0  0  0  0  0  0  0  0  0  0  0
    4.0360    3.0216   -1.0134 O   0  0  0  0  0  0  0  0  0  0  0  0
    3.6250   -0.5500    0.5793 N   0  0  0  0  0  0  0  0  0  0  0  0
    3.4868   -1.8381    1.2312 C   0  0  0  0  0  0  0  0  0  0  0  0
    3.7177   -2.9682    0.2360 C   0  0  0  0  0  0  0  0  0  0  0  0
    4.4981   -2.8537   -0.7117 O   0  0  0  0  0  0  0  0  0  0  0  0
    3.0270   -4.2727    0.5325 C   0  0  0  0  0  0  0  0  0  0  0  0
  1  2  2  0  0  0  0
  2  8  1  0  0  0  0
  2  3  1  0  0  0  0
  3  6  1  0  0  0  0
  3  4  1  0  0  0  0
  4  5  1  0  0  0  0
  6  7  2  0  0  0  0
  8  9  1  0  0  0  0
  9 10  1  0  0  0  0
 10 12  1  0  0  0  0
 10 11  2  0  0  0  0
M  END
>  <ActivityOutcome_CPDBAS_Hamster>
active

$$$$

 OpenBabel09181215163D

  2  1  0  0  0  0  0  0  0  0999 V2000
    0.9873   -0.0573   -0.0578 C   0  0  0  0  0  0  0  0  0  0  0  0
    2.2115   -0.0608   -0.0903 O   0  0  0  0  0  0  0  0  0  0  0  0
  1  2  2  0  0  0  0
M  END
>  <ActivityOutcome_CPDBAS_Hamster>
inactive

$$$$

 OpenBabel09181215163D

 17 18  0  0  0  0  0  0  0  0999 V2000
    0.3277    2.0047    1.2726 O   0  5  0  0  0  0  0  0  0  0  0  0
    0.9573    2.8960    0.6865 N   0  3  0  0  0  0  0  0  0  0  0  0
    0.4966    3.9779    0.3020 O   0  0  0  0  0  0  0  0  0  0  0  0
    2.3401    2.6324    0.4401 C   0  0  0  0  0  0  0  0  0  0  0  0
    3.1359    1.5541    0.7394 C   0  0  0  0  0  0  0  0  0  0  0  0
    4.4165    1.8817    0.2226 C   0  0  0  0  0  0  0  0  0  0  0  0
    4.3122    3.1355   -0.3560 C   0  0  0  0  0  0  0  0  0  0  0  0
    3.0312    3.6012   -0.2159 O   0  0  0  0  0  0  0  0  0  0  0  0
    5.4069    3.8753   -1.0443 C   0  0  0  0  0  0  0  0  0  0  0  0
    5.2113    5.1237   -1.5948 C   0  0  0  0  0  0  0  0  0  0  0  0
    6.6572    5.6570   -2.3358 S   0  0  0  0  0  0  0  0  0  0  0  0
    7.4328    4.1905   -1.8691 C   0  0  0  0  0  0  0  0  0  0  0  0
    6.6806    3.3513   -1.1850 N   0  0  0  0  0  0  0  0  0  0  0  0
    8.7230    3.9698   -2.2104 N   0  0  0  0  0  0  0  0  0  0  0  0
    9.4857    2.9832   -1.5825 N   0  0  0  0  0  0  0  0  0  0  0  0
   10.8292    3.2270   -1.4290 C   0  0  0  0  0  0  0  0  0  0  0  0
   11.4238    4.1926   -1.8915 O   0  0  0  0  0  0  0  0  0  0  0  0
  1  2  1  0  0  0  0
  2  4  1  0  0  0  0
  2  3  2  0  0  0  0
  4  5  2  0  0  0  0
  4  8  1  0  0  0  0
  5  6  1  0  0  0  0
  6  7  2  0  0  0  0
  7  8  1  0  0  0  0
  7  9  1  0  0  0  0
  9 10  2  0  0  0  0
  9 13  1  0  0  0  0
 10 11  1  0  0  0  0
 11 12  1  0  0  0  0
 12 13  2  0  0  0  0
 12 14  1  0  0  0  0
 14 15  1  0  0  0  0
 15 16  1  0  0  0  0
 16 17  2  0  0  0  0
M  CHG  2   1  -1   2   1
M  END
>  <ActivityOutcome_CPDBAS_Hamster>
active

$$$$

 OpenBabel09181215163D

  7  7  0  0  0  0  0  0  0  0999 V2000
    2.6285   -1.1625   -0.1751 O   0  0  0  0  0  0  0  0  0  0  0  0
    2.2445    0.0017   -0.0953 C   0  0  0  0  0  0  0  0  0  0  0  0
    2.9905    1.1728   -0.4781 C   0  0  0  0  0  0  0  0  0  0  0  0
    2.6699    2.5171   -0.4362 C   0  0  0  0  0  0  0  0  0  0  0  0
    3.7928    3.2170   -0.9421 C   0  0  0  0  0  0  0  0  0  0  0  0
    4.7275    2.2615   -1.2610 C   0  0  0  0  0  0  0  0  0  0  0  0
    4.2519    1.0206   -0.9841 O   0  0  0  0  0  0  0  0  0  0  0  0
  1  2  2  0  0  0  0
  2  3  1  0  0  0  0
  3  4  2  0  0  0  0
  3  7  1  0  0  0  0
  4  5  1  0  0  0  0
  5  6  2  0  0  0  0
  6  7  1  0  0  0  0
M  END
>  <ActivityOutcome_CPDBAS_Hamster>
inactive

$$$$

 OpenBabel09181215163D

  5  5  0  0  0  0  0  0  0  0999 V2000
    2.9351   -1.3388    0.2118 O   0  0  0  0  0  0  0  0  0  0  0  0
    2.5292    0.0096    0.0166 C   0  0  0  0  0  0  0  0  0  0  0  0
    3.1590    0.5335   -1.2266 C   0  0  0  0  0  0  0  0  0  0  0  0
    2.7210    1.8461   -1.8216 C   0  0  0  0  0  0  0  0  0  0  0  0
    2.2966    0.5899   -2.3699 O   0  0  0  0  0  0  0  0  0  0  0  0
  1  2  1  0  0  0  0
  2  3  1  0  0  0  0
  3  4  1  0  0  0  0
  3  5  1  0  0  0  0
  4  5  1  0  0  0  0
M  END
>  <ActivityOutcome_CPDBAS_Hamster>
active

$$$$

 OpenBabel09181215163D

 24 26  0  0  0  0  0  0  0  0999 V2000
    1.9987   -0.0774    1.5912 O   0  0  0  0  0  0  0  0  0  0  0  0
    2.9443   -0.1888    0.8329 C   0  0  0  0  0  0  0  0  0  0  0  0
    3.7663    0.9076    0.3750 C   0  0  0  0  0  0  0  0  0  0  0  0
    4.9665    0.3262    0.0297 C   0  0  0  0  0  0  0  0  0  0  0  0
    4.9922   -1.0397    0.1909 O   0  0  0  0  0  0  0  0  0  0  0  0
    3.5966   -1.4660    0.3859 C   0  0  1  0  0  0  0  0  0  0  0  0
    3.6096   -2.6087    1.4431 C   0  5  0  0  0  0  0  0  0  0  0  0
    3.5816   -3.8610    0.7687 C   0  5  0  0  0  0  0  0  0  0  0  0
    3.4671   -4.3120   -0.4358 C   0  5  0  0  0  0  0  0  0  0  0  0
    2.5734   -5.1708   -0.5631 O   0  5  0  0  0  0  0  0  0  0  0  0
    3.5967   -3.2710   -1.5271 C   0  0  0  0  0  0  0  0  0  0  0  0
    3.0245   -1.8982   -1.0320 C   0  0  1  0  0  0  0  0  0  0  0  0
    1.4860   -1.9202   -1.0552 C   0  0  0  0  0  0  0  0  0  0  0  0
    3.7779   -2.5777    2.7363 O   0  5  0  0  0  0  0  0  0  0  0  0
    3.8327   -1.4081    3.4194 C   0  0  0  0  0  0  0  0  0  0  0  0
    6.0313    1.1090   -0.3832 C   0  0  0  0  0  0  0  0  0  0  0  0
    7.5378    0.3621   -0.7667 Cl  0  0  0  0  0  0  0  0  0  0  0  0
    5.8555    2.5056   -0.4561 C   0  0  0  0  0  0  0  0  0  0  0  0
    6.9480    3.2328   -0.8541 O   0  0  0  0  0  0  0  0  0  0  0  0
    6.8298    4.6479   -0.9220 C   0  0  0  0  0  0  0  0  0  0  0  0
    4.6076    3.0731   -0.1128 C   0  0  0  0  0  0  0  0  0  0  0  0
    3.5412    2.2698    0.3095 C   0  0  0  0  0  0  0  0  0  0  0  0
    2.3161    2.7214    0.6923 O   0  0  0  0  0  0  0  0  0  0  0  0
    1.9024    3.9753    0.1566 C   0  0  0  0  0  0  0  0  0  0  0  0
  1  2  2  0  0  0  0
  2  3  1  0  0  0  0
  3  4  2  0  0  0  0
  3 22  1  0  0  0  0
  4 16  1  0  0  0  0
  4  5  1  0  0  0  0
  6  5  1  6  0  0  0
  6  2  1  0  0  0  0
  6  7  1  0  0  0  0
  6 12  1  0  0  0  0
  7  8  1  0  0  0  0
  7 14  2  0  0  0  0
  8  9  2  0  0  0  0
  9 11  1  0  0  0  0
  9 10  1  0  0  0  0
 11 12  1  0  0  0  0
 12 13  1  1  0  0  0
 14 15  1  0  0  0  0
 16 18  2  0  0  0  0
 16 17  1  0  0  0  0
 18 21  1  0  0  0  0
 18 19  1  0  0  0  0
 19 20  1  0  0  0  0
 21 22  2  0  0  0  0
 22 23  1  0  0  0  0
 23 24  1  0  0  0  0
M  CHG  5   7  -1   8  -1   9  -1  10  -1  14  -1
M  END
>  <ActivityOutcome_CPDBAS_Hamster>
inactive

$$$$

 OpenBabel09181215163D

 12 12  0  0  0  0  0  0  0  0999 V2000
    1.0365   -0.0944   -0.0490 Cl  0  0  0  0  0  0  0  0  0  0  0  0
    2.7790   -0.0598   -0.0453 C   0  0  0  0  0  0  0  0  0  0  0  0
    3.5070   -1.2640   -0.0437 C   0  0  0  0  0  0  0  0  0  0  0  0
    4.9138   -1.2364   -0.0407 C   0  0  0  0  0  0  0  0  0  0  0  0
    5.5931   -0.0042   -0.0393 C   0  0  0  0  0  0  0  0  0  0  0  0
    4.8654    1.2006   -0.0410 C   0  0  0  0  0  0  0  0  0  0  0  0
    3.4586    1.1721   -0.0440 C   0  0  0  0  0  0  0  0  0  0  0  0
    2.5572    2.6646   -0.0460 Cl  0  0  0  0  0  0  0  0  0  0  0  0
    5.7069    2.7269   -0.0393 Cl  0  0  0  0  0  0  0  0  0  0  0  0
    7.3358    0.0304   -0.0356 Cl  0  0  0  0  0  0  0  0  0  0  0  0
    5.8151   -2.7285   -0.0386 Cl  0  0  0  0  0  0  0  0  0  0  0  0
    2.6653   -2.7909   -0.0453 Cl  0  0  0  0  0  0  0  0  0  0  0  0
  1  2  1  0  0  0  0
  2  3  2  0  0  0  0
  2  7  1  0  0  0  0
  3  4  1  0  0  0  0
  3 12  1  0  0  0  0
  4  5  2  0  0  0  0
  4 11  1  0  0  0  0
  5  6  1  0  0  0  0
  5 10  1  0  0  0  0
  6  7  2  0  0  0  0
  6  9  1  0  0  0  0
  7  8  1  0  0  0  0
M  END
>  <ActivityOutcome_CPDBAS_Hamster>
active

$$$$

 OpenBabel09181215163D

  2  1  0  0  0  0  0  0  0  0999 V2000
    0.9432    0.0668    0.0552 N   0  0  0  0  0  0  0  0  0  0  0  0
    2.3840    0.0476    0.0841 N   0  0  0  0  0  0  0  0  0  0  0  0
  1  2  1  0  0  0  0
M  END
>  <ActivityOutcome_CPDBAS_Hamster>
active

$$$$

 OpenBabel09181215163D

  7  5  0  0  0  0  0  0  0  0999 V2000
    2.0953    1.2388    0.9974 O   0  0  0  0  0  0  0  0  0  0  0  0
    3.5980    0.7366    0.7536 S   0  0  0  0  0  0  0  0  0  0  0  0
    3.6722   -0.6439    1.1635 O   0  0  0  0  0  0  0  0  0  0  0  0
    3.9718    1.1715   -0.5713 O   0  0  0  0  0  0  0  0  0  0  0  0
    4.4088    1.6404    1.8063 O   0  0  0  0  0  0  0  0  0  0  0  0
    0.5468   -0.5873   -0.1909 N   0  0  0  0  0  0  0  0  0  0  0  0
    1.2513   -0.5736   -1.4435 N   0  0  0  0  0  0  0  0  0  0  0  0
  1  2  1  0  0  0  0
  2  5  1  0  0  0  0
  2  4  2  0  0  0  0
  2  3  2  0  0  0  0
  6  7  1  0  0  0  0
M  END
>  <ActivityOutcome_CPDBAS_Hamster>
active

$$$$

 OpenBabel09181215163D

 18 20  0  0  0  0  0  0  0  0999 V2000
    0.9568    0.1565   -0.3516 C   0  0  0  0  0  0  0  0  0  0  0  0
    2.4351   -0.1442   -0.2671 C   0  0  0  0  0  0  0  0  0  0  0  0
    2.8225   -1.3029   -0.4217 O   0  0  0  0  0  0  0  0  0  0  0  0
    3.2397    0.9607   -0.0150 N   0  0  0  0  0  0  0  0  0  0  0  0
    2.5850    2.2146    0.0491 O   0  0  0  0  0  0  0  0  0  0  0  0
    4.6610    1.0156    0.0378 C   0  0  0  0  0  0  0  0  0  0  0  0
    5.3096    2.2642    0.0214 C   0  0  0  0  0  0  0  0  0  0  0  0
    6.6962    2.3100    0.0694 C   0  0  0  0  0  0  0  0  0  0  0  0
    7.4698    1.1367    0.1478 C   0  0  0  0  0  0  0  0  0  0  0  0
    6.8529   -0.0983    0.1770 C   0  0  0  0  0  0  0  0  0  0  0  0
    5.4512   -0.1520    0.1191 C   0  0  0  0  0  0  0  0  0  0  0  0
    8.8701    1.4998    0.1719 C   0  0  0  0  0  0  0  0  0  0  0  0
   10.0085    0.7149    0.2414 C   0  0  0  0  0  0  0  0  0  0  0  0
   11.2546    1.3500    0.2378 C   0  0  0  0  0  0  0  0  0  0  0  0
   11.3508    2.7503    0.1649 C   0  0  0  0  0  0  0  0  0  0  0  0
   10.2032    3.5431    0.0961 C   0  0  0  0  0  0  0  0  0  0  0  0
    8.9736    2.9065    0.1011 C   0  0  0  0  0  0  0  0  0  0  0  0
    7.5945    3.5304    0.0311 C   0  0  0  0  0  0  0  0  0  0  0  0
  1  2  1  0  0  0  0
  2  4  1  0  0  0  0
  2  3  2  0  0  0  0
  4  6  1  0  0  0  0
  4  5  1  0  0  0  0
  6 11  1  0  0  0  0
  6  7  2  0  0  0  0
  7  8  1  0  0  0  0
  8  9  2  0  0  0  0
  8 18  1  0  0  0  0
  9 10  1  0  0  0  0
  9 12  1  0  0  0  0
 10 11  2  0  0  0  0
 12 17  1  0  0  0  0
 12 13  2  0  0  0  0
 13 14  1  0  0  0  0
 14 15  2  0  0  0  0
 15 16  1  0  0  0  0
 16 17  2  0  0  0  0
 17 18  1  0  0  0  0
M  END
>  <ActivityOutcome_CPDBAS_Hamster>
active

$$$$

 OpenBabel09181215163D

  5  4  0  0  0  0  0  0  0  0999 V2000
    2.2687    1.6104   -0.4783 O   0  0  0  0  0  0  0  0  0  0  0  0
    2.1550    0.1945   -0.3306 C   0  0  0  0  0  0  0  0  0  0  0  0
    2.9097   -0.2650    0.9213 C   0  0  0  0  0  0  0  0  0  0  0  0
    4.3504   -0.0138    0.7555 N   0  0  0  0  0  0  0  0  0  0  0  0
    5.0716   -0.3650    1.9538 N   0  0  0  0  0  0  0  0  0  0  0  0
  1  2  1  0  0  0  0
  2  3  1  0  0  0  0
  3  4  1  0  0  0  0
  4  5  1  0  0  0  0
M  END
>  <ActivityOutcome_CPDBAS_Hamster>
inactive

$$$$

 OpenBabel09181215163D

 10 10  0  0  0  0  0  0  0  0999 V2000
    1.7385   -1.1661   -0.5116 O   0  0  0  0  0  0  0  0  0  0  0  0
    2.6021   -0.6711    0.2085 C   0  0  0  0  0  0  0  0  0  0  0  0
    2.5345    0.7645    0.5873 C   0  0  0  0  0  0  0  0  0  0  0  0
    3.1361    1.2588    1.7454 C   0  0  0  0  0  0  0  0  0  0  0  0
    3.0075    2.6106    2.0133 C   0  0  0  0  0  0  0  0  0  0  0  0
    2.3338    3.4716    1.2221 N   0  0  0  0  0  0  0  0  0  0  0  0
    1.7464    2.9629    0.1181 C   0  0  0  0  0  0  0  0  0  0  0  0
    1.8135    1.6294   -0.2375 C   0  0  0  0  0  0  0  0  0  0  0  0
    3.6955   -1.3893    0.6790 N   0  0  0  0  0  0  0  0  0  0  0  0
    3.8549   -2.7332    0.2723 N   0  0  0  0  0  0  0  0  0  0  0  0
  1  2  2  0  0  0  0
  2  9  1  0  0  0  0
  2  3  1  0  0  0  0
  3  4  2  0  0  0  0
  3  8  1  0  0  0  0
  4  5  1  0  0  0  0
  5  6  2  0  0  0  0
  6  7  1  0  0  0  0
  7  8  2  0  0  0  0
  9 10  1  0  0  0  0
M  END
>  <ActivityOutcome_CPDBAS_Hamster>
inactive

$$$$

 OpenBabel09181215163D

  9  9  0  0  0  0  0  0  0  0999 V2000
    4.0627   -1.7331   -1.0559 O   0  5  0  0  0  0  0  0  0  0  0  0
    3.0474   -0.9939   -0.8592 C   0  0  0  0  0  0  0  0  0  0  0  0
    1.9442   -1.0553   -1.4876 O   0  0  0  0  0  0  0  0  0  0  0  0
    3.1622    0.0544    0.2210 C   0  0  0  0  0  0  0  0  0  0  0  0
    4.3370    0.1985    0.9669 C   0  0  0  0  0  0  0  0  0  0  0  0
    4.3941    1.1758    1.9482 C   0  0  0  0  0  0  0  0  0  0  0  0
    3.3776    2.0172    2.2438 N   0  0  0  0  0  0  0  0  0  0  0  0
    2.2518    1.8609    1.5114 C   0  0  0  0  0  0  0  0  0  0  0  0
    2.0978    0.9143    0.5101 C   0  0  0  0  0  0  0  0  0  0  0  0
  1  2  1  0  0  0  0
  2  4  1  0  0  0  0
  2  3  2  0  0  0  0
  4  5  2  0  0  0  0
  4  9  1  0  0  0  0
  5  6  1  0  0  0  0
  6  7  2  0  0  0  0
  7  8  1  0  0  0  0
  8  9  2  0  0  0  0
M  CHG  1   1  -1
M  END
>  <ActivityOutcome_CPDBAS_Hamster>
inactive

$$$$

 OpenBabel09181215163D

 14 14  0  0  0  0  0  0  0  0999 V2000
    1.6793   -0.0607    0.5701 O   0  0  0  0  0  0  0  0  0  0  0  0
    2.7368    0.2518    0.0458 C   0  0  0  0  0  0  0  0  0  0  0  0
    3.5233    1.3345    0.3213 N   0  0  0  0  0  0  0  0  0  0  0  0
    3.3141    2.3421    1.2793 C   0  0  0  0  0  0  0  0  0  0  0  0
    2.2298    2.3592    2.1614 C   0  0  0  0  0  0  0  0  0  0  0  0
    2.0849    3.3929    3.0926 C   0  0  0  0  0  0  0  0  0  0  0  0
    3.0234    4.4202    3.1489 C   0  0  0  0  0  0  0  0  0  0  0  0
    4.1047    4.4073    2.2728 C   0  0  0  0  0  0  0  0  0  0  0  0
    4.2553    3.3766    1.3428 C   0  0  0  0  0  0  0  0  0  0  0  0
    5.2673    5.6751    2.3358 Cl  0  0  0  0  0  0  0  0  0  0  0  0
    3.3322   -0.4586   -0.9511 O   0  0  0  0  0  0  0  0  0  0  0  0
    2.6321   -1.6395   -1.3892 C   0  0  0  0  0  0  0  0  0  0  0  0
    3.1080   -1.9478   -2.8040 C   0  0  0  0  0  0  0  0  0  0  0  0
    2.9429   -2.8028   -0.4530 C   0  0  0  0  0  0  0  0  0  0  0  0
  1  2  2  0  0  0  0
  2 11  1  0  0  0  0
  2  3  1  0  0  0  0
  3  4  1  0  0  0  0
  4  5  2  0  0  0  0
  4  9  1  0  0  0  0
  5  6  1  0  0  0  0
  6  7  2  0  0  0  0
  7  8  1  0  0  0  0
  8  9  2  0  0  0  0
  8 10  1  0  0  0  0
 11 12  1  0  0  0  0
 12 14  1  0  0  0  0
 12 13  1  0  0  0  0
M  END
>  <ActivityOutcome_CPDBAS_Hamster>
inactive

$$$$

 OpenBabel09181215163D

 13 13  0  0  0  0  0  0  0  0999 V2000
    2.6279    1.7249    0.4910 O   0  0  0  0  0  0  0  0  0  0  0  0
    3.0786    0.6509    0.1224 C   0  0  0  0  0  0  0  0  0  0  0  0
    2.9003    0.0365   -1.0833 N   0  0  0  0  0  0  0  0  0  0  0  0
    2.1429    0.4800   -2.1818 C   0  0  0  0  0  0  0  0  0  0  0  0
    1.4377    1.6856   -2.1995 C   0  0  0  0  0  0  0  0  0  0  0  0
    0.6887    2.0534   -3.3215 C   0  0  0  0  0  0  0  0  0  0  0  0
    0.6406    1.2204   -4.4360 C   0  0  0  0  0  0  0  0  0  0  0  0
    1.3465    0.0202   -4.4319 C   0  0  0  0  0  0  0  0  0  0  0  0
    2.0957   -0.3474   -3.3103 C   0  0  0  0  0  0  0  0  0  0  0  0
    3.8682   -0.1454    0.8962 O   0  0  0  0  0  0  0  0  0  0  0  0
    4.1653    0.3611    2.2126 C   0  0  0  0  0  0  0  0  0  0  0  0
    4.4994   -0.8331    3.0979 C   0  0  0  0  0  0  0  0  0  0  0  0
    5.3462    1.3223    2.1340 C   0  0  0  0  0  0  0  0  0  0  0  0
  1  2  2  0  0  0  0
  2 10  1  0  0  0  0
  2  3  1  0  0  0  0
  3  4  1  0  0  0  0
  4  5  2  0  0  0  0
  4  9  1  0  0  0  0
  5  6  1  0  0  0  0
  6  7  2  0  0  0  0
  7  8  1  0  0  0  0
  8  9  2  0  0  0  0
 10 11  1  0  0  0  0
 11 13  1  0  0  0  0
 11 12  1  0  0  0  0
M  END
>  <ActivityOutcome_CPDBAS_Hamster>
inactive

$$$$

 OpenBabel09181215163D

 15  6  0  0  0  0  0  0  0  0999 V2000
    7.7514    0.9698    3.4452 Pb  0  2  0  0  0  0  0  0  0  0  0  0
    0.8475   -2.0335    0.9132 O   0  5  0  0  0  0  0  0  0  0  0  0
    1.6699   -1.1137    0.3752 C   0  0  0  0  0  0  0  0  0  0  0  0
    1.8914    0.1885    1.0754 C   0  0  0  0  0  0  0  0  0  0  0  0
    2.2289   -1.3459   -0.6847 O   0  0  0  0  0  0  0  0  0  0  0  0
    5.0509   -0.0991   -0.4608 O   0  5  0  0  0  0  0  0  0  0  0  0
    5.8116   -0.7761    0.4194 C   0  0  0  0  0  0  0  0  0  0  0  0
    5.1917   -1.3609    1.6480 C   0  0  0  0  0  0  0  0  0  0  0  0
    7.0067   -0.9083    0.2112 O   0  0  0  0  0  0  0  0  0  0  0  0
    1.0576   -1.0036    4.4666 O   0  5  0  0  0  0  0  0  0  0  0  0
   -0.6332    3.2217   -0.2388 O   0  5  0  0  0  0  0  0  0  0  0  0
   -1.3226   -1.8913   -3.8767 Pb  0  2  0  0  0  0  0  0  0  0  0  0
   -1.1237    0.1118   -0.8775 O   0  5  0  0  0  0  0  0  0  0  0  0
    4.0011   -4.1615   -0.5970 O   0  5  0  0  0  0  0  0  0  0  0  0
   -2.1198    1.2042    3.2216 Pb  0  2  0  0  0  0  0  0  0  0  0  0
  2  3  1  0  0  0  0
  3  5  2  0  0  0  0
  3  4  1  0  0  0  0
  6  7  1  0  0  0  0
  7  9  2  0  0  0  0
  7  8  1  0  0  0  0
M  CHG  8   1   2   2  -1   6  -1  10  -1  11  -1  12   2  13  -1  14  -1
M  CHG  1  15   2
M  END
>  <ActivityOutcome_CPDBAS_Hamster>
inactive

$$$$

 OpenBabel09181215163D

 19 19  0  0  0  0  0  0  0  0999 V2000
    0.9574   -0.7538    0.4084 N   0  0  0  0  0  0  0  0  0  0  0  0
    0.2565   -1.0631    1.6328 C   0  0  0  0  0  0  0  0  0  0  0  0
    0.9141   -1.6030    2.7614 C   0  0  0  0  0  0  0  0  0  0  0  0
    0.1845   -1.9008    3.9126 C   0  0  0  0  0  0  0  0  0  0  0  0
   -1.1893   -1.6760    3.9428 C   0  0  0  0  0  0  0  0  0  0  0  0
   -1.8196   -1.1573    2.8131 C   0  0  0  0  0  0  0  0  0  0  0  0
   -1.0955   -0.8706    1.6987 N   0  0  0  0  0  0  0  0  0  0  0  0
    0.1925   -0.3993   -0.7899 C   0  0  0  0  0  0  0  0  0  0  0  0
   -0.5395    0.9126   -0.6869 C   0  0  0  0  0  0  0  0  0  0  0  0
   -1.3792    1.4285   -1.6778 C   0  0  0  0  0  0  0  0  0  0  0  0
   -1.9569    2.6806   -1.3330 C   0  0  0  0  0  0  0  0  0  0  0  0
   -1.5668    3.1499   -0.0748 C   0  0  0  0  0  0  0  0  0  0  0  0
   -0.5317    2.0145    0.5572 S   0  0  0  0  0  0  0  0  0  0  0  0
    2.4072   -0.9410    0.2892 C   0  0  0  0  0  0  0  0  0  0  0  0
    3.2073    0.0931    1.1184 C   0  0  0  0  0  0  0  0  0  0  0  0
    4.6774   -0.0692    0.9732 N   0  3  0  0  0  0  0  0  0  0  0  0
    5.3693    0.9977    1.7182 C   0  0  0  0  0  0  0  0  0  0  0  0
    5.1536   -1.3801    1.4579 C   0  0  0  0  0  0  0  0  0  0  0  0
    1.3477    4.7702    2.7684 Cl  0  0  0  0  0  0  0  0  0  0  0  0
  1 14  1  0  0  0  0
  1  8  1  0  0  0  0
  1  2  1  0  0  0  0
  2  3  1  0  0  0  0
  2  7  2  0  0  0  0
  3  4  2  0  0  0  0
  4  5  1  0  0  0  0
  5  6  2  0  0  0  0
  6  7  1  0  0  0  0
  8  9  1  0  0  0  0
  9 10  2  0  0  0  0
  9 13  1  0  0  0  0
 10 11  1  0  0  0  0
 11 12  2  0  0  0  0
 12 13  1  0  0  0  0
 14 15  1  0  0  0  0
 15 16  1  0  0  0  0
 16 18  1  0  0  0  0
 16 17  1  0  0  0  0
M  CHG  1  16   1
M  END
>  <ActivityOutcome_CPDBAS_Hamster>
inactive

$$$$

 OpenBabel09181215163D

 33 35  0  0  0  0  0  0  0  0999 V2000
    6.1915   -7.3815    1.5414 N   0  0  0  0  0  0  0  0  0  0  0  0
    4.9986   -7.9349    2.0392 C   0  0  0  0  0  0  0  0  0  0  0  0
    3.8459   -7.1622    2.1274 C   0  0  0  0  0  0  0  0  0  0  0  0
    2.7212   -7.8751    2.5607 C   0  0  0  0  0  0  0  0  0  0  0  0
    2.7531   -9.1718    2.8536 N   0  0  0  0  0  0  0  0  0  0  0  0
    3.9106   -9.8057    2.7190 C   0  0  0  0  0  0  0  0  0  0  0  0
    5.0467   -9.2473    2.3132 N   0  0  0  0  0  0  0  0  0  0  0  0
    3.9177  -11.1678    2.9469 N   0  0  0  0  0  0  0  0  0  0  0  0
    1.5454   -7.2480    2.6684 N   0  0  0  0  0  0  0  0  0  0  0  0
    1.4869   -5.9428    2.3029 C   0  0  0  0  0  0  0  0  0  0  0  0
    2.5961   -5.2345    1.8748 C   0  0  0  0  0  0  0  0  0  0  0  0
    3.8090   -5.8349    1.8095 N   0  0  0  0  0  0  0  0  0  0  0  0
    2.4416   -3.8318    1.3222 C   0  0  0  0  0  0  0  0  0  0  0  0
    1.8447   -3.8735   -0.0188 N   0  0  0  0  0  0  0  0  0  0  0  0
    1.0154   -2.8492   -0.4733 C   0  0  0  0  0  0  0  0  0  0  0  0
    0.1895   -3.0499   -1.5955 C   0  0  0  0  0  0  0  0  0  0  0  0
   -0.6596   -2.0495   -2.0809 C   0  0  0  0  0  0  0  0  0  0  0  0
   -0.7046   -0.8064   -1.4529 C   0  0  0  0  0  0  0  0  0  0  0  0
    0.0844   -0.5896   -0.3206 C   0  0  0  0  0  0  0  0  0  0  0  0
    0.9332   -1.5983    0.1555 C   0  0  0  0  0  0  0  0  0  0  0  0
   -1.6347    0.2334   -1.9742 C   0  0  0  0  0  0  0  0  0  0  0  0
   -2.6150   -0.1092   -2.6296 O   0  0  0  0  0  0  0  0  0  0  0  0
   -1.2870    1.5197   -1.6787 N   0  0  0  0  0  0  0  0  0  0  0  0
   -2.0936    2.7269   -1.9434 C   0  0  1  0  0  0  0  0  0  0  0  0
   -2.8677    3.1349   -0.6735 C   0  0  0  0  0  0  0  0  0  0  0  0
   -3.8787    2.0805   -0.2094 C   0  0  0  0  0  0  0  0  0  0  0  0
   -4.5909    2.5172    1.0706 C   0  0  0  0  0  0  0  0  0  0  0  0
   -3.9992    2.2252    2.1520 O   0  0  0  0  0  0  0  0  0  0  0  0
   -5.7191    3.0676    0.9112 O   0  5  0  0  0  0  0  0  0  0  0  0
   -1.1579    3.9293   -2.3391 C   0  0  0  0  0  0  0  0  0  0  0  0
   -1.6890    4.8780   -2.9839 O   0  0  0  0  0  0  0  0  0  0  0  0
    0.0652    3.7715   -2.0102 O   0  5  0  0  0  0  0  0  0  0  0  0
    2.5287   -4.6655   -1.0438 C   0  0  0  0  0  0  0  0  0  0  0  0
  1  2  1  0  0  0  0
  2  7  1  0  0  0  0
  2  3  2  0  0  0  0
  3 12  1  0  0  0  0
  3  4  1  0  0  0  0
  4  9  1  0  0  0  0
  4  5  2  0  0  0  0
  5  6  1  0  0  0  0
  6  7  2  0  0  0  0
  6  8  1  0  0  0  0
  9 10  2  0  0  0  0
 10 11  1  0  0  0  0
 11 12  2  0  0  0  0
 11 13  1  0  0  0  0
 13 14  1  0  0  0  0
 14 33  1  0  0  0  0
 14 15  1  0  0  0  0
 15 16  2  0  0  0  0
 15 20  1  0  0  0  0
 16 17  1  0  0  0  0
 17 18  2  0  0  0  0
 18 19  1  0  0  0  0
 18 21  1  0  0  0  0
 19 20  2  0  0  0  0
 21 23  1  0  0  0  0
 21 22  2  0  0  0  0
 24 23  1  1  0  0  0
 24 30  1  0  0  0  0
 24 25  1  0  0  0  0
 25 26  1  0  0  0  0
 26 27  1  0  0  0  0
 27 29  1  0  0  0  0
 27 28  2  0  0  0  0
 30 32  1  0  0  0  0
 30 31  2  0  0  0  0
M  CHG  2  29  -1  32  -1
M  END
>  <ActivityOutcome_CPDBAS_Hamster>
inactive

$$$$

 OpenBabel09181215163D

  5  4  0  0  0  0  0  0  0  0999 V2000
    0.8859   -0.0468   -0.2041 C   0  0  0  0  0  0  0  0  0  0  0  0
    2.3002    0.1443    0.0477 N   0  0  0  0  0  0  0  0  0  0  0  0
    2.8562   -0.4967    1.1807 N   0  0  0  0  0  0  0  0  0  0  0  0
    3.1575    0.7278   -0.8736 C   0  0  0  0  0  0  0  0  0  0  0  0
    4.3764    0.7988   -0.7557 O   0  0  0  0  0  0  0  0  0  0  0  0
  1  2  1  0  0  0  0
  2  4  1  0  0  0  0
  2  3  1  0  0  0  0
  4  5  2  0  0  0  0
M  END
>  <ActivityOutcome_CPDBAS_Hamster>
active

$$$$

 OpenBabel09181215163D

  7  6  0  0  0  0  0  0  0  0999 V2000
    2.3220   -0.0039    0.2901 O   0  0  0  0  0  0  0  0  0  0  0  0
    3.3624    0.4817    0.7101 C   0  0  0  0  0  0  0  0  0  0  0  0
    3.4343    1.2922    1.9619 C   0  0  0  0  0  0  0  0  0  0  0  0
    4.5913    1.7705    2.4505 C   0  0  0  0  0  0  0  0  0  0  0  0
    2.1187    1.5290    2.6411 C   0  0  0  0  0  0  0  0  0  0  0  0
    4.5790    0.3676    0.1197 O   0  0  0  0  0  0  0  0  0  0  0  0
    4.5736   -0.3993   -1.0846 C   0  0  0  0  0  0  0  0  0  0  0  0
  1  2  2  0  0  0  0
  2  6  1  0  0  0  0
  2  3  1  0  0  0  0
  3  5  1  0  0  0  0
  3  4  2  0  0  0  0
  6  7  1  0  0  0  0
M  END
>  <ActivityOutcome_CPDBAS_Hamster>
inactive

$$$$

 OpenBabel09181215163D

  3  2  0  0  0  0  0  0  0  0999 V2000
    1.0550    0.1049   -0.0431 C   0  0  0  0  0  0  0  0  0  0  0  0
    2.5143    0.0630   -0.0582 N   0  0  0  0  0  0  0  0  0  0  0  0
    3.0536    0.9592    0.9314 N   0  0  0  0  0  0  0  0  0  0  0  0
  1  2  1  0  0  0  0
  2  3  1  0  0  0  0
M  END
>  <ActivityOutcome_CPDBAS_Hamster>
active

$$$$

 OpenBabel09181215163D

 15 15  0  0  0  0  0  0  0  0999 V2000
    1.6578    1.5651    0.3725 O   0  0  0  0  0  0  0  0  0  0  0  0
    1.5041    0.3506    0.2855 C   0  0  0  0  0  0  0  0  0  0  0  0
    0.1243   -0.1968    0.2066 C   0  0  0  0  0  0  0  0  0  0  0  0
   -0.1632   -1.5439   -0.0255 C   0  0  0  0  0  0  0  0  0  0  0  0
   -1.4947   -1.9536   -0.1090 C   0  0  0  0  0  0  0  0  0  0  0  0
   -2.4925   -1.0054    0.0486 C   0  0  0  0  0  0  0  0  0  0  0  0
   -2.2495    0.3005    0.2837 N   0  0  0  0  0  0  0  0  0  0  0  0
   -0.9484    0.6761    0.3552 C   0  0  0  0  0  0  0  0  0  0  0  0
    2.6792   -0.6161    0.2479 C   0  0  0  0  0  0  0  0  0  0  0  0
    4.0379    0.0877    0.3543 C   0  0  0  0  0  0  0  0  0  0  0  0
    4.2905    0.6911    1.7503 C   0  0  0  0  0  0  0  0  0  0  0  0
    5.6067    1.3252    1.9429 N   0  0  0  0  0  0  0  0  0  0  0  0
    6.6021    0.4674    1.9744 N   0  0  0  0  0  0  0  0  0  0  0  0
    7.6487    1.0040    2.3538 O   0  0  0  0  0  0  0  0  0  0  0  0
    5.7942    2.4801    1.0570 C   0  0  0  0  0  0  0  0  0  0  0  0
  1  2  2  0  0  0  0
  2  9  1  0  0  0  0
  2  3  1  0  0  0  0
  3  4  2  0  0  0  0
  3  8  1  0  0  0  0
  4  5  1  0  0  0  0
  5  6  2  0  0  0  0
  6  7  1  0  0  0  0
  7  8  2  0  0  0  0
  9 10  1  0  0  0  0
 10 11  1  0  0  0  0
 11 12  1  0  0  0  0
 12 15  1  0  0  0  0
 12 13  1  0  0  0  0
 13 14  2  0  0  0  0
M  END
>  <ActivityOutcome_CPDBAS_Hamster>
inactive

$$$$

 OpenBabel09181215173D

  9  9  0  0  0  0  0  0  0  0999 V2000
    1.0516   -0.0393   -0.0428 C   0  0  0  0  0  0  0  0  0  0  0  0
    2.5476   -0.1095   -0.0432 C   0  0  0  0  0  0  0  0  0  0  0  0
    3.2269   -1.2638   -0.0443 C   0  0  0  0  0  0  0  0  0  0  0  0
    4.7039   -1.2384   -0.0446 C   0  0  0  0  0  0  0  0  0  0  0  0
    5.3546   -2.2767   -0.0452 O   0  0  0  0  0  0  0  0  0  0  0  0
    5.2806    0.0023   -0.0442 N   0  0  0  0  0  0  0  0  0  0  0  0
    4.5903    1.1789   -0.0432 C   0  0  0  0  0  0  0  0  0  0  0  0
    5.3617    2.6507   -0.0428 S   0  0  0  0  0  0  0  0  0  0  0  0
    3.2271    1.0859   -0.0426 N   0  0  0  0  0  0  0  0  0  0  0  0
  1  2  1  0  0  0  0
  2  3  2  0  0  0  0
  2  9  1  0  0  0  0
  3  4  1  0  0  0  0
  4  6  1  0  0  0  0
  4  5  2  0  0  0  0
  6  7  1  0  0  0  0
  7  9  1  0  0  0  0
  7  8  2  0  0  0  0
M  END
>  <ActivityOutcome_CPDBAS_Hamster>
active

$$$$

 OpenBabel09181215173D

 23 25  0  0  0  0  0  0  0  0999 V2000
    4.5346   -0.7802    3.3938 C   0  0  0  0  0  0  0  0  0  0  0  0
    3.7631   -1.3650    2.2053 C   0  0  0  0  0  0  0  0  0  0  0  0
    4.3115   -2.7247    1.6534 C   0  0  0  0  0  0  0  0  0  0  0  0
    5.2816   -3.2240    2.3076 O   0  5  0  0  0  0  0  0  0  0  0  0
    3.7594   -3.1877    0.6146 O   0  0  0  0  0  0  0  0  0  0  0  0
    2.3343   -1.3827    2.4729 O   0  0  0  0  0  0  0  0  0  0  0  0
    1.8209   -2.0868    3.5216 C   0  0  0  0  0  0  0  0  0  0  0  0
    2.3470   -3.2399    4.0866 C   0  0  0  0  0  0  0  0  0  0  0  0
    1.6703   -3.8969    5.1245 C   0  0  0  0  0  0  0  0  0  0  0  0
    0.4541   -3.4088    5.6312 C   0  0  0  0  0  0  0  0  0  0  0  0
   -0.0379   -2.2156    5.0879 C   0  0  0  0  0  0  0  0  0  0  0  0
    0.6217   -1.5826    4.0282 C   0  0  0  0  0  0  0  0  0  0  0  0
   -0.2537   -4.1725    6.7477 C   0  0  0  0  0  0  0  0  0  0  0  0
   -1.6724   -4.6568    6.3869 C   0  0  0  0  0  0  0  0  0  0  0  0
   -2.7519   -3.5956    6.5616 C   0  0  0  0  0  0  0  0  0  0  0  0
   -2.7337   -2.9543    7.9478 C   0  0  0  0  0  0  0  0  0  0  0  0
   -1.3778   -2.8095    8.5916 C   0  0  0  0  0  0  0  0  0  0  0  0
   -0.2297   -3.4316    8.0725 C   0  0  0  0  0  0  0  0  0  0  0  0
    0.9777   -3.3597    8.7907 C   0  0  0  0  0  0  0  0  0  0  0  0
    1.0530   -2.6666    9.9975 C   0  0  0  0  0  0  0  0  0  0  0  0
   -0.0742   -2.0221   10.4939 C   0  0  0  0  0  0  0  0  0  0  0  0
   -1.2817   -2.0966    9.7988 C   0  0  0  0  0  0  0  0  0  0  0  0
    3.9239   -0.4003    1.0155 C   0  0  0  0  0  0  0  0  0  0  0  0
  1  2  1  0  0  0  0
  2 23  1  0  0  0  0
  2  6  1  0  0  0  0
  2  3  1  0  0  0  0
  3  5  2  0  0  0  0
  3  4  1  0  0  0  0
  6  7  1  0  0  0  0
  7  8  2  0  0  0  0
  7 12  1  0  0  0  0
  8  9  1  0  0  0  0
  9 10  2  0  0  0  0
 10 11  1  0  0  0  0
 10 13  1  0  0  0  0
 11 12  2  0  0  0  0
 13 14  1  0  0  0  0
 13 18  1  0  0  0  0
 14 15  1  0  0  0  0
 15 16  1  0  0  0  0
 16 17  1  0  0  0  0
 17 22  1  0  0  0  0
 17 18  2  0  0  0  0
 18 19  1  0  0  0  0
 19 20  2  0  0  0  0
 20 21  1  0  0  0  0
 21 22  2  0  0  0  0
M  CHG  1   4  -1
M  END
>  <ActivityOutcome_CPDBAS_Hamster>
inactive

$$$$

 OpenBabel09181215173D

  4  2  0  0  0  0  0  0  0  0999 V2000
    1.7948   -0.2554    1.0480 O   0  0  0  0  0  0  0  0  0  0  0  0
    2.8972   -0.5987    0.3658 N   0  0  0  0  0  0  0  0  0  0  0  0
    2.6068   -0.5529   -0.9427 O   0  5  0  0  0  0  0  0  0  0  0  0
    0.0123    0.2064   -0.9603 Na  0  3  0  0  0  0  0  0  0  0  0  0
  1  2  2  0  0  0  0
  2  3  1  0  0  0  0
M  CHG  2   3  -1   4   1
M  END
>  <ActivityOutcome_CPDBAS_Hamster>
inactive

$$$$

 OpenBabel09181215173D

 17 18  0  0  0  0  0  0  0  0999 V2000
    1.0316   -0.6724    1.0782 N   0  3  0  0  0  0  0  0  0  0  0  0
    0.4803   -0.8724   -0.0118 O   0  5  0  0  0  0  0  0  0  0  0  0
    0.6505   -1.1027    2.1742 O   0  0  0  0  0  0  0  0  0  0  0  0
    2.2123    0.1314    1.0899 C   0  0  0  0  0  0  0  0  0  0  0  0
    2.6768    0.5378   -0.1199 O   0  0  0  0  0  0  0  0  0  0  0  0
    3.7908    1.2948    0.1284 C   0  0  0  0  0  0  0  0  0  0  0  0
    4.0214    1.3503    1.4926 C   0  0  0  0  0  0  0  0  0  0  0  0
    2.9971    0.5932    2.1185 C   0  0  0  0  0  0  0  0  0  0  0  0
    4.6104    1.9636   -0.9178 C   0  0  0  0  0  0  0  0  0  0  0  0
    5.7053    2.7432   -0.5998 N   0  0  0  0  0  0  0  0  0  0  0  0
    6.2183    3.2327   -1.6975 C   0  0  0  0  0  0  0  0  0  0  0  0
    5.4494    2.7962   -3.1602 S   0  0  0  0  0  0  0  0  0  0  0  0
    4.3247    1.8599   -2.2639 C   0  0  0  0  0  0  0  0  0  0  0  0
    7.2917    4.0618   -1.8664 N   0  0  0  0  0  0  0  0  0  0  0  0
    8.0727    4.4817   -0.8152 C   0  0  0  0  0  0  0  0  0  0  0  0
    7.9535    4.1748    0.3655 O   0  0  0  0  0  0  0  0  0  0  0  0
    9.1839    5.4065   -1.2504 C   0  0  0  0  0  0  0  0  0  0  0  0
  1  4  1  0  0  0  0
  1  3  2  0  0  0  0
  1  2  1  0  0  0  0
  4  5  1  0  0  0  0
  4  8  2  0  0  0  0
  5  6  1  0  0  0  0
  6  7  2  0  0  0  0
  6  9  1  0  0  0  0
  7  8  1  0  0  0  0
  9 13  2  0  0  0  0
  9 10  1  0  0  0  0
 10 11  2  0  0  0  0
 11 12  1  0  0  0  0
 11 14  1  0  0  0  0
 12 13  1  0  0  0  0
 14 15  1  0  0  0  0
 15 17  1  0  0  0  0
 15 16  2  0  0  0  0
M  CHG  2   1   1   2  -1
M  END
>  <ActivityOutcome_CPDBAS_Hamster>
active

$$$$

 OpenBabel09181215173D

 16 17  0  0  0  0  0  0  0  0999 V2000
    3.6205    2.9840    0.8954 O   0  5  0  0  0  0  0  0  0  0  0  0
    4.2465    2.3905    1.7837 N   0  3  0  0  0  0  0  0  0  0  0  0
    5.0882    2.8930    2.5394 O   0  0  0  0  0  0  0  0  0  0  0  0
    3.9590    0.9989    1.9381 C   0  0  0  0  0  0  0  0  0  0  0  0
    3.1247    0.1547    1.2476 C   0  0  0  0  0  0  0  0  0  0  0  0
    3.2624   -1.1058    1.8849 C   0  0  0  0  0  0  0  0  0  0  0  0
    4.1619   -0.9387    2.9244 C   0  0  0  0  0  0  0  0  0  0  0  0
    4.5985    0.3593    2.9517 O   0  0  0  0  0  0  0  0  0  0  0  0
    4.5811   -1.9916    3.8906 C   0  0  0  0  0  0  0  0  0  0  0  0
    5.4595   -1.7374    4.9251 C   0  0  0  0  0  0  0  0  0  0  0  0
    5.6571   -3.1555    5.8711 S   0  0  0  0  0  0  0  0  0  0  0  0
    4.5949   -3.9725    4.8188 C   0  0  0  0  0  0  0  0  0  0  0  0
    4.0973   -3.2867    3.8211 N   0  0  0  0  0  0  0  0  0  0  0  0
    4.3674   -5.2770    5.1321 N   0  0  0  0  0  0  0  0  0  0  0  0
    3.5780   -6.0655    4.3551 C   0  0  0  0  0  0  0  0  0  0  0  0
    3.3525   -7.2409    4.6230 O   0  0  0  0  0  0  0  0  0  0  0  0
  1  2  1  0  0  0  0
  2  4  1  0  0  0  0
  2  3  2  0  0  0  0
  4  5  2  0  0  0  0
  4  8  1  0  0  0  0
  5  6  1  0  0  0  0
  6  7  2  0  0  0  0
  7  8  1  0  0  0  0
  7  9  1  0  0  0  0
  9 10  2  0  0  0  0
  9 13  1  0  0  0  0
 10 11  1  0  0  0  0
 11 12  1  0  0  0  0
 12 13  2  0  0  0  0
 12 14  1  0  0  0  0
 14 15  1  0  0  0  0
 15 16  2  0  0  0  0
M  CHG  2   1  -1   2   1
M  END
>  <ActivityOutcome_CPDBAS_Hamster>
active

$$$$

 OpenBabel09181215173D

 15 17  0  0  0  0  0  0  0  0999 V2000
    1.0321   -0.2196    0.3524 O   0  0  0  0  0  0  0  0  0  0  0  0
    2.2465   -0.0787    0.1467 N   0  3  0  0  0  0  0  0  0  0  0  0
    2.8432   -0.9129   -0.8830 C   0  0  0  0  0  0  0  0  0  0  0  0
    2.5400   -2.2953   -0.8563 C   0  0  0  0  0  0  0  0  0  0  0  0
    3.0794   -3.1679   -1.8111 C   0  0  0  0  0  0  0  0  0  0  0  0
    3.9097   -2.5973   -2.7656 C   0  0  0  0  0  0  0  0  0  0  0  0
    4.1856   -1.2421   -2.7766 C   0  0  0  0  0  0  0  0  0  0  0  0
    3.6881   -0.3398   -1.8704 C   0  0  0  0  0  0  0  0  0  0  0  0
    4.0866    1.0089   -2.0766 C   0  0  0  0  0  0  0  0  0  0  0  0
    4.9406    1.3583   -3.1412 C   0  0  0  0  0  0  0  0  0  0  0  0
    5.4283    0.3989   -4.0404 C   0  0  0  0  0  0  0  0  0  0  0  0
    5.0228   -0.9099   -3.8244 C   0  0  0  0  0  0  0  0  0  0  0  0
    5.3738   -2.1227   -4.6152 C   0  0  0  0  0  0  0  0  0  0  0  0
    4.6122   -3.2772   -3.8922 C   0  0  0  0  0  0  0  0  0  0  0  0
    2.9899    0.6907    0.7696 O   0  5  0  0  0  0  0  0  0  0  0  0
  1  2  2  0  0  0  0
  2 15  1  0  0  0  0
  2  3  1  0  0  0  0
  3  4  2  0  0  0  0
  3  8  1  0  0  0  0
  4  5  1  0  0  0  0
  5  6  2  0  0  0  0
  6 14  1  0  0  0  0
  6  7  1  0  0  0  0
  7 12  1  0  0  0  0
  7  8  2  0  0  0  0
  8  9  1  0  0  0  0
  9 10  2  0  0  0  0
 10 11  1  0  0  0  0
 11 12  2  0  0  0  0
 12 13  1  0  0  0  0
 13 14  1  0  0  0  0
M  CHG  2   2   1  15  -1
M  END
>  <ActivityOutcome_CPDBAS_Hamster>
inactive

$$$$

 OpenBabel09181215173D

 12 11  0  0  0  0  0  0  0  0999 V2000
    0.8431   -0.4438   -1.0904 N   0  0  0  0  0  0  0  0  0  0  0  0
    0.5424   -1.0903    0.2139 C   0  0  0  0  0  0  0  0  0  0  0  0
    0.8331   -0.2694    1.4985 C   0  0  0  0  0  0  0  0  0  0  0  0
    0.4062   -1.0329    2.7609 C   0  0  0  0  0  0  0  0  0  0  0  0
    1.1177   -2.2669    2.8416 O   0  0  0  0  0  0  0  0  0  0  0  0
    2.2279    0.0235    1.6235 O   0  0  0  0  0  0  0  0  0  0  0  0
    0.0338    0.7743   -1.2966 C   0  0  0  0  0  0  0  0  0  0  0  0
    0.1054    1.3011   -2.7504 C   0  0  0  0  0  0  0  0  0  0  0  0
   -0.2766    0.2748   -3.6699 O   0  0  0  0  0  0  0  0  0  0  0  0
   -0.8356    2.4801   -2.9551 C   0  0  0  0  0  0  0  0  0  0  0  0
    2.1240   -0.2746   -1.3287 N   0  0  0  0  0  0  0  0  0  0  0  0
    2.6454   -1.3464   -1.6610 O   0  0  0  0  0  0  0  0  0  0  0  0
  1 11  1  0  0  0  0
  1  7  1  0  0  0  0
  1  2  1  0  0  0  0
  2  3  1  0  0  0  0
  3  6  1  0  0  0  0
  3  4  1  0  0  0  0
  4  5  1  0  0  0  0
  7  8  1  0  0  0  0
  8 10  1  0  0  0  0
  8  9  1  0  0  0  0
 11 12  2  0  0  0  0
M  END
>  <ActivityOutcome_CPDBAS_Hamster>
active

$$$$

 OpenBabel09181215173D

 12 11  0  0  0  0  0  0  0  0999 V2000
    0.9770   -1.6431   -0.6528 N   0  0  0  0  0  0  0  0  0  0  0  0
    1.5875   -0.6935    0.3041 C   0  0  0  0  0  0  0  0  0  0  0  0
    2.4170   -1.3625    1.4167 C   0  0  0  0  0  0  0  0  0  0  0  0
    3.6107   -2.1602    0.8826 C   0  0  0  0  0  0  0  0  0  0  0  0
    4.3390   -2.6843    2.0010 O   0  0  0  0  0  0  0  0  0  0  0  0
    2.9115   -0.3409    2.3001 O   0  0  0  0  0  0  0  0  0  0  0  0
    0.4338   -0.9161   -1.8236 C   0  0  0  0  0  0  0  0  0  0  0  0
    1.5443   -0.4945   -2.7844 C   0  0  0  0  0  0  0  0  0  0  0  0
    1.0821    0.1762   -4.0539 C   0  0  0  0  0  0  0  0  0  0  0  0
    2.7446   -0.6583   -2.5623 O   0  0  0  0  0  0  0  0  0  0  0  0
    0.0818   -2.4182   -0.0744 N   0  0  0  0  0  0  0  0  0  0  0  0
   -0.1253   -3.4272   -0.7572 O   0  0  0  0  0  0  0  0  0  0  0  0
  1 11  1  0  0  0  0
  1  7  1  0  0  0  0
  1  2  1  0  0  0  0
  2  3  1  0  0  0  0
  3  6  1  0  0  0  0
  3  4  1  0  0  0  0
  4  5  1  0  0  0  0
  7  8  1  0  0  0  0
  8 10  2  0  0  0  0
  8  9  1  0  0  0  0
 11 12  2  0  0  0  0
M  END
>  <ActivityOutcome_CPDBAS_Hamster>
active

$$$$

 OpenBabel09181215173D

 11 10  0  0  0  0  0  0  0  0999 V2000
    2.9123   -3.7383   -0.5909 N   0  0  0  0  0  0  0  0  0  0  0  0
    1.6608   -2.9953   -0.8178 C   0  0  0  0  0  0  0  0  0  0  0  0
    0.6594   -3.7190   -1.7464 C   0  0  0  0  0  0  0  0  0  0  0  0
    0.2310   -5.0940   -1.2198 C   0  0  0  0  0  0  0  0  0  0  0  0
   -0.4706   -4.9220    0.0151 O   0  0  0  0  0  0  0  0  0  0  0  0
   -0.5179   -2.9008   -1.8644 O   0  0  0  0  0  0  0  0  0  0  0  0
    3.6171   -3.2546    0.6150 C   0  0  0  0  0  0  0  0  0  0  0  0
    4.2238   -1.8468    0.5211 C   0  0  0  0  0  0  0  0  0  0  0  0
    4.7809   -1.4863    1.7831 O   0  0  0  0  0  0  0  0  0  0  0  0
    3.6529   -3.8534   -1.6728 N   0  0  0  0  0  0  0  0  0  0  0  0
    4.5773   -4.6553   -1.5035 O   0  0  0  0  0  0  0  0  0  0  0  0
  1 10  1  0  0  0  0
  1  7  1  0  0  0  0
  1  2  1  0  0  0  0
  2  3  1  0  0  0  0
  3  6  1  0  0  0  0
  3  4  1  0  0  0  0
  4  5  1  0  0  0  0
  7  8  1  0  0  0  0
  8  9  1  0  0  0  0
 10 11  2  0  0  0  0
M  END
>  <ActivityOutcome_CPDBAS_Hamster>
inactive

$$$$

 OpenBabel09181215173D

 10  9  0  0  0  0  0  0  0  0999 V2000
    0.1841   -0.2876    1.9954 N   0  0  0  0  0  0  0  0  0  0  0  0
   -0.5927   -0.3060    0.7424 C   0  0  0  0  0  0  0  0  0  0  0  0
   -2.0653   -0.5855    1.0222 C   0  0  0  0  0  0  0  0  0  0  0  0
   -2.9563   -0.7074   -0.1877 C   0  0  0  0  0  0  0  0  0  0  0  0
   -2.5391   -0.6502    2.1585 O   0  0  0  0  0  0  0  0  0  0  0  0
    0.3540   -1.6521    2.5597 C   0  0  0  0  0  0  0  0  0  0  0  0
    0.0947   -1.6733    4.0740 C   0  0  0  0  0  0  0  0  0  0  0  0
   -1.3001   -1.6988    4.3679 O   0  0  0  0  0  0  0  0  0  0  0  0
    1.3031    0.3967    1.8567 N   0  0  0  0  0  0  0  0  0  0  0  0
    1.8941    0.5368    2.9323 O   0  0  0  0  0  0  0  0  0  0  0  0
  1  9  1  0  0  0  0
  1  6  1  0  0  0  0
  1  2  1  0  0  0  0
  2  3  1  0  0  0  0
  3  5  2  0  0  0  0
  3  4  1  0  0  0  0
  6  7  1  0  0  0  0
  7  8  1  0  0  0  0
  9 10  2  0  0  0  0
M  END
>  <ActivityOutcome_CPDBAS_Hamster>
active

$$$$

 OpenBabel09181215173D

 11 11  0  0  0  0  0  0  0  0999 V2000
    0.6478    1.2765   -0.2596 C   0  0  0  0  0  0  0  0  0  0  0  0
    1.4591    0.0557    0.2479 C   0  0  0  0  0  0  0  0  0  0  0  0
    0.7029   -1.2484   -0.0588 N   0  3  0  0  0  0  0  0  0  0  0  0
   -0.8057   -1.2483    0.2434 C   0  0  0  0  0  0  0  0  0  0  0  0
   -1.4477    0.0614   -0.2777 C   0  0  0  0  0  0  0  0  0  0  0  0
   -0.7670    1.3011    0.1333 N   0  0  0  0  0  0  0  0  0  0  0  0
   -0.9706    1.7402    1.3526 N   0  0  0  0  0  0  0  0  0  0  0  0
   -2.1642    1.7148    1.6649 O   0  0  0  0  0  0  0  0  0  0  0  0
   -1.1284   -1.5579    1.7017 C   0  0  0  0  0  0  0  0  0  0  0  0
    1.4222   -2.5022    0.3619 C   0  0  0  0  0  0  0  0  0  0  0  0
    1.8939    0.1688    1.7061 C   0  0  0  0  0  0  0  0  0  0  0  0
  1  2  1  0  0  0  0
  1  6  1  0  0  0  0
  2  3  1  0  0  0  0
  2 11  1  0  0  0  0
  3  4  1  0  0  0  0
  3 10  1  0  0  0  0
  4  5  1  0  0  0  0
  4  9  1  0  0  0  0
  5  6  1  0  0  0  0
  6  7  1  0  0  0  0
  7  8  2  0  0  0  0
M  CHG  1   3   1
M  END
>  <ActivityOutcome_CPDBAS_Hamster>
active

$$$$

 OpenBabel09181215173D

 10  9  0  0  0  0  0  0  0  0999 V2000
    0.8928    1.6193    0.9018 N   0  0  0  0  0  0  0  0  0  0  0  0
    0.9658    1.3209   -0.5479 C   0  0  0  0  0  0  0  0  0  0  0  0
    1.1312    2.5984   -1.3557 C   0  0  0  0  0  0  0  0  0  0  0  0
   -0.1089    3.2456   -1.9178 C   0  0  0  0  0  0  0  0  0  0  0  0
    2.2498    3.0475   -1.6201 O   0  0  0  0  0  0  0  0  0  0  0  0
    1.3146    0.4090    1.6399 C   0  0  0  0  0  0  0  0  0  0  0  0
    1.4838    0.5006    3.1421 C   0  0  0  0  0  0  0  0  0  0  0  0
    1.4284    1.5876    3.9259 C   0  0  0  0  0  0  0  0  0  0  0  0
   -0.3082    2.0294    1.2609 N   0  0  0  0  0  0  0  0  0  0  0  0
   -0.3424    3.2642    1.2945 O   0  0  0  0  0  0  0  0  0  0  0  0
  1  9  1  0  0  0  0
  1  6  1  0  0  0  0
  1  2  1  0  0  0  0
  2  3  1  0  0  0  0
  3  5  2  0  0  0  0
  3  4  1  0  0  0  0
  6  7  1  0  0  0  0
  7  8  2  0  0  0  0
  9 10  2  0  0  0  0
M  END
>  <ActivityOutcome_CPDBAS_Hamster>
active

$$$$

 OpenBabel09181215173D

  9  8  0  0  0  0  0  0  0  0999 V2000
    1.9377    0.7098   -0.2822 N   0  0  0  0  0  0  0  0  0  0  0  0
    1.0928    0.2759   -1.4150 C   0  0  0  0  0  0  0  0  0  0  0  0
    1.8277    0.3776   -2.7653 C   0  0  0  0  0  0  0  0  0  0  0  0
    3.0754   -0.5129   -2.8438 C   0  0  0  0  0  0  0  0  0  0  0  0
    2.7009   -1.8858   -2.7086 O   0  0  0  0  0  0  0  0  0  0  0  0
    0.9197   -0.0209   -3.8038 O   0  0  0  0  0  0  0  0  0  0  0  0
    1.8731    2.1667   -0.1260 C   0  0  0  0  0  0  0  0  0  0  0  0
    1.6884    0.0835    0.8447 N   0  0  0  0  0  0  0  0  0  0  0  0
    2.1140   -1.0765    0.7974 O   0  0  0  0  0  0  0  0  0  0  0  0
  1  8  1  0  0  0  0
  1  7  1  0  0  0  0
  1  2  1  0  0  0  0
  2  3  1  0  0  0  0
  3  6  1  0  0  0  0
  3  4  1  0  0  0  0
  4  5  1  0  0  0  0
  8  9  2  0  0  0  0
M  END
>  <ActivityOutcome_CPDBAS_Hamster>
active

$$$$

 OpenBabel09181215173D

  8  8  0  0  0  0  0  0  0  0999 V2000
    2.0735    0.1624    1.1433 O   0  0  0  0  0  0  0  0  0  0  0  0
    2.8964   -0.0073    0.2371 N   0  0  0  0  0  0  0  0  0  0  0  0
    2.7779   -1.2065   -0.2883 N   0  0  0  0  0  0  0  0  0  0  0  0
    3.5401   -1.3427   -1.5450 C   0  0  0  0  0  0  0  0  0  0  0  0
    3.3082   -2.7213   -2.1726 C   0  0  0  0  0  0  0  0  0  0  0  0
    3.6840   -3.7659   -1.2689 O   0  0  0  0  0  0  0  0  0  0  0  0
    2.9268   -3.6689   -0.0572 C   0  0  0  0  0  0  0  0  0  0  0  0
    3.1448   -2.3131    0.6239 C   0  0  0  0  0  0  0  0  0  0  0  0
  1  2  2  0  0  0  0
  2  3  1  0  0  0  0
  3  4  1  0  0  0  0
  3  8  1  0  0  0  0
  4  5  1  0  0  0  0
  5  6  1  0  0  0  0
  6  7  1  0  0  0  0
  7  8  1  0  0  0  0
M  END
>  <ActivityOutcome_CPDBAS_Hamster>
active

$$$$

 OpenBabel09181215173D

 13 14  0  0  0  0  0  0  0  0999 V2000
   -0.9418    0.4816   -0.3468 N   0  0  0  0  0  0  0  0  0  0  0  0
   -1.3776   -0.1343    0.7713 C   0  0  0  0  0  0  0  0  0  0  0  0
   -0.5410   -0.7371    1.6953 C   0  0  0  0  0  0  0  0  0  0  0  0
    0.8313   -0.7074    1.4571 C   0  0  0  0  0  0  0  0  0  0  0  0
    1.3292   -0.0897    0.3043 C   0  0  0  0  0  0  0  0  0  0  0  0
    0.3960    0.4882   -0.5543 C   0  0  0  0  0  0  0  0  0  0  0  0
    2.8061    0.0155   -0.0019 C   0  0  0  0  0  0  0  0  0  0  0  0
    3.6196   -1.1123    0.5055 N   0  0  0  0  0  0  0  0  0  0  0  0
    3.7126   -2.1253   -0.3237 N   0  0  0  0  0  0  0  0  0  0  0  0
    4.2798   -3.0867    0.2068 O   0  0  0  0  0  0  0  0  0  0  0  0
    4.8870   -0.5749    1.0281 C   0  0  0  0  0  0  0  0  0  0  0  0
    4.8862    0.9118    0.7144 C   0  0  0  0  0  0  0  0  0  0  0  0
    3.4135    1.2537    0.6583 C   0  0  0  0  0  0  0  0  0  0  0  0
  1  2  1  0  0  0  0
  1  6  2  0  0  0  0
  2  3  2  0  0  0  0
  3  4  1  0  0  0  0
  4  5  2  0  0  0  0
  5  6  1  0  0  0  0
  5  7  1  0  0  0  0
  7  8  1  0  0  0  0
  7 13  1  0  0  0  0
  8 11  1  0  0  0  0
  8  9  1  0  0  0  0
  9 10  2  0  0  0  0
 11 12  1  0  0  0  0
 12 13  1  0  0  0  0
M  END
>  <ActivityOutcome_CPDBAS_Hamster>
active

$$$$

 OpenBabel09181215173D

 14 15  0  0  0  0  0  0  0  0999 V2000
   -1.3591   -0.5989    0.9374 C   0  0  0  0  0  0  0  0  0  0  0  0
   -0.4999   -0.1559    1.9391 C   0  0  0  0  0  0  0  0  0  0  0  0
    0.8352    0.0977    1.6337 C   0  0  0  0  0  0  0  0  0  0  0  0
    1.3134   -0.0760    0.3288 C   0  0  0  0  0  0  0  0  0  0  0  0
    0.4150   -0.5322   -0.6459 C   0  0  0  0  0  0  0  0  0  0  0  0
   -0.9143   -0.7949   -0.3560 N   0  3  0  0  0  0  0  0  0  0  0  0
   -1.7004   -1.2133   -1.2592 O   0  5  0  0  0  0  0  0  0  0  0  0
    2.7613    0.1688   -0.0564 C   0  0  0  0  0  0  0  0  0  0  0  0
    3.6136   -1.0929    0.1605 C   0  0  0  0  0  0  0  0  0  0  0  0
    4.8362   -0.6253    0.9355 C   0  0  0  0  0  0  0  0  0  0  0  0
    4.8636    0.8747    0.7152 C   0  0  0  0  0  0  0  0  0  0  0  0
    3.4374    1.2224    0.7298 N   0  0  0  0  0  0  0  0  0  0  0  0
    3.1545    2.4468    0.3497 N   0  0  0  0  0  0  0  0  0  0  0  0
    3.6343    3.2747    1.1317 O   0  0  0  0  0  0  0  0  0  0  0  0
  1  2  2  0  0  0  0
  1  6  1  0  0  0  0
  2  3  1  0  0  0  0
  3  4  2  0  0  0  0
  4  5  1  0  0  0  0
  4  8  1  0  0  0  0
  5  6  2  0  0  0  0
  6  7  1  0  0  0  0
  8  9  1  0  0  0  0
  8 12  1  0  0  0  0
  9 10  1  0  0  0  0
 10 11  1  0  0  0  0
 11 12  1  0  0  0  0
 12 13  1  0  0  0  0
 13 14  2  0  0  0  0
M  CHG  2   6   1   7  -1
M  END
>  <ActivityOutcome_CPDBAS_Hamster>
inactive

$$$$

 OpenBabel09181215173D

  8  8  0  0  0  0  0  0  0  0999 V2000
    1.9118    0.0692    1.0118 O   0  0  0  0  0  0  0  0  0  0  0  0
    2.8219   -0.0473    0.1838 N   0  0  0  0  0  0  0  0  0  0  0  0
    2.7918   -1.2310   -0.3910 N   0  0  0  0  0  0  0  0  0  0  0  0
    3.6364   -1.2755   -1.5956 C   0  0  0  0  0  0  0  0  0  0  0  0
    3.4680   -2.5947   -2.3524 C   0  0  0  0  0  0  0  0  0  0  0  0
    3.7604   -3.7896   -1.4543 C   0  0  0  0  0  0  0  0  0  0  0  0
    2.9375   -3.7027   -0.1757 C   0  0  0  0  0  0  0  0  0  0  0  0
    3.1184   -2.3490    0.5163 C   0  0  0  0  0  0  0  0  0  0  0  0
  1  2  2  0  0  0  0
  2  3  1  0  0  0  0
  3  4  1  0  0  0  0
  3  8  1  0  0  0  0
  4  5  1  0  0  0  0
  5  6  1  0  0  0  0
  6  7  1  0  0  0  0
  7  8  1  0  0  0  0
M  END
>  <ActivityOutcome_CPDBAS_Hamster>
active

$$$$

 OpenBabel09181215173D

  7  7  0  0  0  0  0  0  0  0999 V2000
    1.3203   -0.0906   -0.0903 O   0  0  0  0  0  0  0  0  0  0  0  0
    2.3580   -0.1561    0.5779 N   0  0  0  0  0  0  0  0  0  0  0  0
    3.0573    0.9480    0.4754 N   0  0  0  0  0  0  0  0  0  0  0  0
    4.3380    0.9028    1.1852 C   0  0  0  0  0  0  0  0  0  0  0  0
    4.8022    2.3531    1.1915 C   0  0  0  0  0  0  0  0  0  0  0  0
    3.5400    3.1812    0.9844 C   0  0  0  0  0  0  0  0  0  0  0  0
    2.4028    2.1719    0.9560 C   0  0  0  0  0  0  0  0  0  0  0  0
  1  2  2  0  0  0  0
  2  3  1  0  0  0  0
  3  4  1  0  0  0  0
  3  7  1  0  0  0  0
  4  5  1  0  0  0  0
  5  6  1  0  0  0  0
  6  7  1  0  0  0  0
M  END
>  <ActivityOutcome_CPDBAS_Hamster>
active

$$$$

 OpenBabel09181215173D

 13 12  0  0  0  0  0  0  0  0999 V2000
    3.4699   -0.3870   -1.2408 O   0  0  0  0  0  0  0  0  0  0  0  0
    2.8369    0.2487   -0.3938 C   0  0  0  0  0  0  0  0  0  0  0  0
    3.4523    1.1866    0.4344 N   0  0  0  0  0  0  0  0  0  0  0  0
    4.8700    1.4554    0.2370 C   0  0  0  0  0  0  0  0  0  0  0  0
    5.1737    2.5350   -0.7946 C   0  0  0  0  0  0  0  0  0  0  0  0
    4.0470    3.1848   -1.5557 C   0  0  0  0  0  0  0  0  0  0  0  0
    6.3419    2.8765   -1.0056 O   0  0  0  0  0  0  0  0  0  0  0  0
    2.8402    1.9488    1.4420 N   0  0  0  0  0  0  0  0  0  0  0  0
    1.7047    1.5982    1.7700 O   0  0  0  0  0  0  0  0  0  0  0  0
    1.4796    0.1033   -0.2869 N   0  0  0  0  0  0  0  0  0  0  0  0
    0.7390   -0.8822   -1.0556 C   0  0  0  0  0  0  0  0  0  0  0  0
    0.7722   -2.2767   -0.4364 C   0  0  0  0  0  0  0  0  0  0  0  0
   -0.0450   -2.2876    1.1507 Cl  0  0  0  0  0  0  0  0  0  0  0  0
  1  2  2  0  0  0  0
  2 10  1  0  0  0  0
  2  3  1  0  0  0  0
  3  8  1  0  0  0  0
  3  4  1  0  0  0  0
  4  5  1  0  0  0  0
  5  7  2  0  0  0  0
  5  6  1  0  0  0  0
  8  9  2  0  0  0  0
 10 11  1  0  0  0  0
 11 12  1  0  0  0  0
 12 13  1  0  0  0  0
M  END
>  <ActivityOutcome_CPDBAS_Hamster>
active

$$$$

 OpenBabel09181215173D

 10  9  0  0  0  0  0  0  0  0999 V2000
    4.8964   -0.4731    2.4577 N   0  0  0  0  0  0  0  0  0  0  0  0
    5.8514   -1.4752    2.4455 C   0  0  0  0  0  0  0  0  0  0  0  0
    5.8626   -2.3927    1.6252 O   0  0  0  0  0  0  0  0  0  0  0  0
    6.8069   -1.4448    3.4155 N   0  0  0  0  0  0  0  0  0  0  0  0
    4.9250    0.5194    3.4432 N   0  0  0  0  0  0  0  0  0  0  0  0
    4.0227    1.3572    3.3491 O   0  0  0  0  0  0  0  0  0  0  0  0
    3.8770   -0.4879    1.4214 C   0  0  0  0  0  0  0  0  0  0  0  0
    4.4626    0.0491    0.1241 C   0  0  0  0  0  0  0  0  0  0  0  0
    3.9041   -0.5359   -1.1469 C   0  0  0  0  0  0  0  0  0  0  0  0
    5.3046    0.9475    0.0880 O   0  0  0  0  0  0  0  0  0  0  0  0
  1  7  1  0  0  0  0
  1  5  1  0  0  0  0
  1  2  1  0  0  0  0
  2  4  1  0  0  0  0
  2  3  2  0  0  0  0
  5  6  2  0  0  0  0
  7  8  1  0  0  0  0
  8 10  2  0  0  0  0
  8  9  1  0  0  0  0
M  END
>  <ActivityOutcome_CPDBAS_Hamster>
active

$$$$

 OpenBabel09181215173D

 11 11  0  0  0  0  0  0  0  0999 V2000
   -0.8190    0.0001   -0.0853 C   0  0  0  0  0  0  0  0  0  0  0  0
   -2.3209   -0.1231   -0.0324 C   0  0  0  0  0  0  0  0  0  0  0  0
   -2.9494   -0.0369   -1.4253 C   0  0  0  0  0  0  0  0  0  0  0  0
   -4.4088   -0.1873   -1.2909 N   0  0  0  0  0  0  0  0  0  0  0  0
   -4.9938   -0.2234   -2.3062 C   0  0  0  0  0  0  0  0  0  0  0  0
   -5.8034   -0.2765   -3.6764 S   0  0  0  0  0  0  0  0  0  0  0  0
   -0.2078    1.2608   -0.0555 C   0  0  0  0  0  0  0  0  0  0  0  0
    1.1818    1.3740   -0.1210 C   0  0  0  0  0  0  0  0  0  0  0  0
    1.9718    0.2304   -0.2206 C   0  0  0  0  0  0  0  0  0  0  0  0
    1.3734   -1.0276   -0.2568 C   0  0  0  0  0  0  0  0  0  0  0  0
   -0.0160   -1.1433   -0.1920 C   0  0  0  0  0  0  0  0  0  0  0  0
  1  7  2  0  0  0  0
  1 11  1  0  0  0  0
  1  2  1  0  0  0  0
  2  3  1  0  0  0  0
  3  4  1  0  0  0  0
  4  5  2  0  0  0  0
  5  6  2  0  0  0  0
  7  8  1  0  0  0  0
  8  9  2  0  0  0  0
  9 10  1  0  0  0  0
 10 11  2  0  0  0  0
M  END
>  <ActivityOutcome_CPDBAS_Hamster>
inactive

$$$$

 OpenBabel09181215173D

 17 18  0  0  0  0  0  0  0  0999 V2000
    1.6599    0.2121    1.5682 O   0  0  0  0  0  0  0  0  0  0  0  0
    2.3458    0.4585    0.5759 C   0  0  0  0  0  0  0  0  0  0  0  0
    3.4228    1.5536    0.5242 C   0  0  0  0  0  0  0  0  0  0  0  0
    2.7941    2.9072    0.0879 C   0  0  0  0  0  0  0  0  0  0  0  0
    3.5406    3.8712   -0.6179 C   0  0  0  0  0  0  0  0  0  0  0  0
    2.9796    5.1003   -0.9791 C   0  0  0  0  0  0  0  0  0  0  0  0
    1.6681    5.4021   -0.6288 C   0  0  0  0  0  0  0  0  0  0  0  0
    0.9195    4.4800    0.0937 C   0  0  0  0  0  0  0  0  0  0  0  0
    1.4779    3.2505    0.4562 C   0  0  0  0  0  0  0  0  0  0  0  0
    4.5307    1.1303   -0.4521 C   0  0  0  0  0  0  0  0  0  0  0  0
    5.7084    1.4744   -0.3497 O   0  0  0  0  0  0  0  0  0  0  0  0
    4.1504    0.3649   -1.5193 N   0  0  0  0  0  0  0  0  0  0  0  0
    3.0663   -0.4512   -1.5314 C   0  0  0  0  0  0  0  0  0  0  0  0
    2.9911   -1.4029   -2.3021 O   0  0  0  0  0  0  0  0  0  0  0  0
    2.1229   -0.2360   -0.5806 N   0  0  0  0  0  0  0  0  0  0  0  0
    4.0259    1.7709    1.9412 C   0  0  0  0  0  0  0  0  0  0  0  0
    4.6975    0.5388    2.5487 C   0  0  0  0  0  0  0  0  0  0  0  0
  1  2  2  0  0  0  0
  2  3  1  0  0  0  0
  2 15  1  0  0  0  0
  3 10  1  0  0  0  0
  3 16  1  0  0  0  0
  3  4  1  0  0  0  0
  4  5  2  0  0  0  0
  4  9  1  0  0  0  0
  5  6  1  0  0  0  0
  6  7  2  0  0  0  0
  7  8  1  0  0  0  0
  8  9  2  0  0  0  0
 10 12  1  0  0  0  0
 10 11  2  0  0  0  0
 12 13  1  0  0  0  0
 13 15  1  0  0  0  0
 13 14  2  0  0  0  0
 16 17  1  0  0  0  0
M  END
>  <ActivityOutcome_CPDBAS_Hamster>
inactive

$$$$

 OpenBabel09181215173D

 17 19  0  0  0  0  0  0  0  0999 V2000
    0.9825    1.2722    0.0254 C   0  0  0  0  0  0  0  0  0  0  0  0
   -0.2556    0.6050    0.0027 C   0  0  0  0  0  0  0  0  0  0  0  0
   -0.2795   -0.7993   -0.1411 C   0  0  0  0  0  0  0  0  0  0  0  0
    0.9325   -1.4918   -0.2619 C   0  0  0  0  0  0  0  0  0  0  0  0
    2.1524   -0.8074   -0.2412 C   0  0  0  0  0  0  0  0  0  0  0  0
    2.1978    0.5800   -0.0874 C   0  0  0  0  0  0  0  0  0  0  0  0
    3.3989    1.3106   -0.0952 N   0  0  0  0  0  0  0  0  0  0  0  0
    4.6558    1.0477   -0.6667 C   0  0  0  0  0  0  0  0  0  0  0  0
    4.8280    0.2138   -1.7772 C   0  0  0  0  0  0  0  0  0  0  0  0
    6.1015   -0.0488   -2.2915 C   0  0  0  0  0  0  0  0  0  0  0  0
    7.2257    0.5128   -1.6924 C   0  0  0  0  0  0  0  0  0  0  0  0
    7.0758    1.3372   -0.5811 C   0  0  0  0  0  0  0  0  0  0  0  0
    5.8004    1.5994   -0.0727 C   0  0  0  0  0  0  0  0  0  0  0  0
   -1.5137   -1.4693   -0.1605 C   0  0  0  0  0  0  0  0  0  0  0  0
   -2.7110   -0.7615   -0.0429 C   0  0  0  0  0  0  0  0  0  0  0  0
   -2.6892    0.6231    0.0947 C   0  0  0  0  0  0  0  0  0  0  0  0
   -1.4699    1.3023    0.1172 C   0  0  0  0  0  0  0  0  0  0  0  0
  1  6  1  0  0  0  0
  1  2  2  0  0  0  0
  2 17  1  0  0  0  0
  2  3  1  0  0  0  0
  3 14  1  0  0  0  0
  3  4  2  0  0  0  0
  4  5  1  0  0  0  0
  5  6  2  0  0  0  0
  6  7  1  0  0  0  0
  7  8  1  0  0  0  0
  8  9  2  0  0  0  0
  8 13  1  0  0  0  0
  9 10  1  0  0  0  0
 10 11  2  0  0  0  0
 11 12  1  0  0  0  0
 12 13  2  0  0  0  0
 14 15  2  0  0  0  0
 15 16  1  0  0  0  0
 16 17  2  0  0  0  0
M  END
>  <ActivityOutcome_CPDBAS_Hamster>
inactive

$$$$

 OpenBabel09181215173D

 23 26  0  0  0  0  0  0  0  0999 V2000
    2.5075    3.0286   -1.7255 O   0  0  0  0  0  0  0  0  0  0  0  0
    3.2692    2.3535   -1.0282 C   0  0  0  0  0  0  0  0  0  0  0  0
    3.7586    2.8147    0.1895 N   0  0  0  0  0  0  0  0  0  0  0  0
    4.3854    1.9005    1.1512 C   0  0  0  0  0  0  0  0  0  0  0  0
    3.3591    1.4353    2.1867 C   0  0  0  0  0  0  0  0  0  0  0  0
    2.2088    2.2244    2.4448 C   0  0  0  0  0  0  0  0  0  0  0  0
    1.3066    1.8423    3.4498 C   0  0  0  0  0  0  0  0  0  0  0  0
    1.5457    0.7082    4.2211 C   0  0  0  0  0  0  0  0  0  0  0  0
    2.6818   -0.0596    3.9897 C   0  0  0  0  0  0  0  0  0  0  0  0
    3.5825    0.3011    2.9849 C   0  0  0  0  0  0  0  0  0  0  0  0
    1.8856    3.4512    1.6122 C   0  0  0  0  0  0  0  0  0  0  0  0
    3.0876    3.9479    0.8079 C   0  0  0  0  0  0  0  0  0  0  0  0
    5.2178    0.8193    0.4398 C   0  0  0  0  0  0  0  0  0  0  0  0
    4.4719    0.1316   -0.6085 N   0  0  0  0  0  0  0  0  0  0  0  0
    3.8112    1.0184   -1.5641 C   0  0  0  0  0  0  0  0  0  0  0  0
    4.8150   -1.1894   -0.8811 C   0  0  0  0  0  0  0  0  0  0  0  0
    5.5161   -1.8358   -0.0985 O   0  0  0  0  0  0  0  0  0  0  0  0
    4.2977   -1.8250   -2.1818 C   0  0  0  0  0  0  0  0  0  0  0  0
    2.8400   -2.2899   -2.0614 C   0  0  0  0  0  0  0  0  0  0  0  0
    2.6799   -3.6423   -1.3705 C   0  0  0  0  0  0  0  0  0  0  0  0
    3.5604   -4.7108   -2.0042 C   0  0  0  0  0  0  0  0  0  0  0  0
    5.0227   -4.2916   -1.9828 C   0  0  0  0  0  0  0  0  0  0  0  0
    5.2307   -2.9464   -2.6750 C   0  0  0  0  0  0  0  0  0  0  0  0
  1  2  2  0  0  0  0
  2 15  1  0  0  0  0
  2  3  1  0  0  0  0
  3 12  1  0  0  0  0
  3  4  1  0  0  0  0
  4  5  1  0  0  0  0
  5  6  2  0  0  0  0
  5 10  1  0  0  0  0
  6 11  1  0  0  0  0
  6  7  1  0  0  0  0
  7  8  2  0  0  0  0
  8  9  1  0  0  0  0
  9 10  2  0  0  0  0
 11 12  1  0  0  0  0
 13 14  1  0  0  0  0
 13  4  1  0  0  0  0
 14 15  1  0  0  0  0
 14 16  1  0  0  0  0
 16 18  1  0  0  0  0
 16 17  2  0  0  0  0
 18 19  1  0  0  0  0
 18 23  1  0  0  0  0
 19 20  1  0  0  0  0
 20 21  1  0  0  0  0
 21 22  1  0  0  0  0
 22 23  1  0  0  0  0
M  END
>  <ActivityOutcome_CPDBAS_Hamster>
inactive

$$$$

 OpenBabel09181215173D

 11 11  0  0  0  0  0  0  0  0999 V2000
   -1.3777   -0.0744   -0.0873 C   0  0  0  0  0  0  0  0  0  0  0  0
   -0.7322    1.1737   -0.0622 C   0  0  0  0  0  0  0  0  0  0  0  0
    0.6607    1.2526   -0.0396 C   0  0  0  0  0  0  0  0  0  0  0  0
    1.4293    0.0902   -0.0416 C   0  0  0  0  0  0  0  0  0  0  0  0
    2.7949    0.1793   -0.0193 O   0  0  0  0  0  0  0  0  0  0  0  0
    0.8093   -1.1577   -0.0663 C   0  0  0  0  0  0  0  0  0  0  0  0
   -0.5865   -1.2359   -0.0890 C   0  0  0  0  0  0  0  0  0  0  0  0
    1.2750    2.4757   -0.0152 O   0  0  0  0  0  0  0  0  0  0  0  0
   -2.8906   -0.1620   -0.1120 C   0  0  0  0  0  0  0  0  0  0  0  0
   -3.5308    0.9375   -0.1087 O   0  5  0  0  0  0  0  0  0  0  0  0
   -3.4031   -1.3238   -0.1340 O   0  0  0  0  0  0  0  0  0  0  0  0
  1  2  2  0  0  0  0
  1  7  1  0  0  0  0
  1  9  1  0  0  0  0
  2  3  1  0  0  0  0
  3  4  2  0  0  0  0
  3  8  1  0  0  0  0
  4  6  1  0  0  0  0
  4  5  1  0  0  0  0
  6  7  2  0  0  0  0
  9 11  2  0  0  0  0
  9 10  1  0  0  0  0
M  CHG  1  10  -1
M  END
>  <ActivityOutcome_CPDBAS_Hamster>
inactive

$$$$

 OpenBabel09181215173D

 24 24  0  0  0  0  0  0  0  0999 V2000
    1.3019    0.3769    0.4750 O   0  0  0  0  0  0  0  0  0  0  0  0
    2.5027    0.3340    0.2319 C   0  0  0  0  0  0  0  0  0  0  0  0
    3.3341    1.5445    0.0673 C   0  0  0  0  0  0  0  0  0  0  0  0
    4.6936    1.3679   -0.1807 C   0  0  0  0  0  0  0  0  0  0  0  0
    5.5360    2.4700   -0.3358 C   0  0  0  0  0  0  0  0  0  0  0  0
    5.0120    3.7532   -0.2438 C   0  0  0  0  0  0  0  0  0  0  0  0
    3.6578    3.9556    0.0001 C   0  0  0  0  0  0  0  0  0  0  0  0
    2.8180    2.8476    0.1549 C   0  0  0  0  0  0  0  0  0  0  0  0
    1.4862    3.0611    0.3833 O   0  0  0  0  0  0  0  0  0  0  0  0
    5.8728    4.7977   -0.4041 O   0  0  0  0  0  0  0  0  0  0  0  0
    5.2877    0.1380   -0.2892 O   0  0  0  0  0  0  0  0  0  0  0  0
    4.5055   -0.9999   -0.1707 C   0  0  0  0  0  0  0  0  0  0  0  0
    3.1846   -0.9818    0.0862 C   0  0  0  0  0  0  0  0  0  0  0  0
    2.4342   -2.1363    0.2313 O   0  0  0  0  0  0  0  0  0  0  0  0
    5.2868   -2.2464   -0.3432 C   0  0  0  0  0  0  0  0  0  0  0  0
    6.5396   -2.3773    0.2796 C   0  0  0  0  0  0  0  0  0  0  0  0
    7.3032   -3.5311    0.0938 C   0  0  0  0  0  0  0  0  0  0  0  0
    6.8326   -4.5639   -0.7150 C   0  0  0  0  0  0  0  0  0  0  0  0
    5.5977   -4.4492   -1.3456 C   0  0  0  0  0  0  0  0  0  0  0  0
    4.8329   -3.2924   -1.1633 C   0  0  0  0  0  0  0  0  0  0  0  0
    7.5938   -5.6859   -0.8847 O   0  0  0  0  0  0  0  0  0  0  0  0
    8.5215   -3.6585    0.7017 O   0  0  0  0  0  0  0  0  0  0  0  0
   -1.3028    0.3319    0.2578 O   0  0  0  0  0  0  0  0  0  0  0  0
   -0.2371   -2.1969    0.5874 O   0  0  0  0  0  0  0  0  0  0  0  0
  1  2  2  0  0  0  0
  2  3  1  0  0  0  0
  2 13  1  0  0  0  0
  3  8  1  0  0  0  0
  3  4  2  0  0  0  0
  4 11  1  0  0  0  0
  4  5  1  0  0  0  0
  5  6  2  0  0  0  0
  6  7  1  0  0  0  0
  6 10  1  0  0  0  0
  7  8  2  0  0  0  0
  8  9  1  0  0  0  0
 11 12  1  0  0  0  0
 12 13  2  0  0  0  0
 12 15  1  0  0  0  0
 13 14  1  0  0  0  0
 15 16  2  0  0  0  0
 15 20  1  0  0  0  0
 16 17  1  0  0  0  0
 17 18  2  0  0  0  0
 17 22  1  0  0  0  0
 18 19  1  0  0  0  0
 18 21  1  0  0  0  0
 19 20  2  0  0  0  0
M  END
>  <ActivityOutcome_CPDBAS_Hamster>
inactive

$$$$

 OpenBabel09181215173D

 24 25  0  0  0  0  0  0  0  0999 V2000
   -0.8084   -1.2433   -0.6052 C   0  0  0  0  0  0  0  0  0  0  0  0
   -1.3483   -0.3068   -1.4921 C   0  0  0  0  0  0  0  0  0  0  0  0
   -0.5289    0.7021   -2.0132 C   0  0  0  0  0  0  0  0  0  0  0  0
    0.8220    0.7675   -1.6587 C   0  0  0  0  0  0  0  0  0  0  0  0
    1.3863   -0.1832   -0.7809 C   0  0  0  0  0  0  0  0  0  0  0  0
    0.5398   -1.1798   -0.2460 C   0  0  0  0  0  0  0  0  0  0  0  0
    2.8447   -0.0778   -0.3828 C   0  0  0  0  0  0  0  0  0  0  0  0
    3.3935    1.3238   -0.2159 C   0  0  0  0  0  0  0  0  0  0  0  0
    2.5858    2.3374    0.3330 C   0  0  0  0  0  0  0  0  0  0  0  0
    3.0681    3.6404    0.4686 C   0  0  0  0  0  0  0  0  0  0  0  0
    4.3644    3.9710    0.0522 C   0  0  0  0  0  0  0  0  0  0  0  0
    4.8226    5.3087    0.2050 N   0  0  0  0  0  0  0  0  0  0  0  0
    5.1851    2.9726   -0.5184 C   0  0  0  0  0  0  0  0  0  0  0  0
    4.6899    1.6654   -0.6546 C   0  0  0  0  0  0  0  0  0  0  0  0
    6.5816    3.2835   -0.9906 C   0  0  0  0  0  0  0  0  0  0  0  0
    3.6355   -1.2005   -0.1775 C   0  0  0  0  0  0  0  0  0  0  0  0
    3.1813   -2.5808   -0.5765 C   0  0  0  0  0  0  0  0  0  0  0  0
    3.9498   -3.6589   -0.3697 C   0  0  0  0  0  0  0  0  0  0  0  0
    5.2732   -3.5286    0.2710 C   0  0  0  0  0  0  0  0  0  0  0  0
    6.0097   -4.5612    0.4791 N   0  0  0  0  0  0  0  0  0  0  0  0
    5.7499   -2.1962    0.6733 C   0  0  0  0  0  0  0  0  0  0  0  0
    4.9973   -1.1073    0.4625 C   0  0  0  0  0  0  0  0  0  0  0  0
   -2.7175   -0.3726   -1.8517 N   0  0  0  0  0  0  0  0  0  0  0  0
    2.6637   -0.7065    3.2721 Cl  0  0  0  0  0  0  0  0  0  0  0  0
  1  2  2  0  0  0  0
  1  6  1  0  0  0  0
  2  3  1  0  0  0  0
  2 23  1  0  0  0  0
  3  4  2  0  0  0  0
  4  5  1  0  0  0  0
  5  6  2  0  0  0  0
  5  7  1  0  0  0  0
  7 16  2  0  0  0  0
  7  8  1  0  0  0  0
  8  9  2  0  0  0  0
  8 14  1  0  0  0  0
  9 10  1  0  0  0  0
 10 11  2  0  0  0  0
 11 13  1  0  0  0  0
 11 12  1  0  0  0  0
 13 14  2  0  0  0  0
 13 15  1  0  0  0  0
 16 17  1  0  0  0  0
 16 22  1  0  0  0  0
 17 18  2  0  0  0  0
 18 19  1  0  0  0  0
 19 21  1  0  0  0  0
 19 20  2  0  0  0  0
 21 22  2  0  0  0  0
M  END
>  <ActivityOutcome_CPDBAS_Hamster>
inactive

$$$$

 OpenBabel09181215183D

 23 24  0  0  0  0  0  0  0  0999 V2000
    1.1969   -0.0105    0.5954 C   0  0  0  0  0  0  0  0  0  0  0  0
    0.4200    1.2205    0.1745 C   0  0  0  0  0  0  0  0  0  0  0  0
   -0.9865    1.2391    0.2857 C   0  0  0  0  0  0  0  0  0  0  0  0
   -1.7220    2.3558   -0.1245 C   0  0  0  0  0  0  0  0  0  0  0  0
   -1.0709    3.4715   -0.6640 C   0  0  0  0  0  0  0  0  0  0  0  0
    0.3204    3.4584   -0.7999 C   0  0  0  0  0  0  0  0  0  0  0  0
    1.0590    2.3447   -0.3937 C   0  0  0  0  0  0  0  0  0  0  0  0
   -1.8166    4.6025   -1.0800 N   0  0  0  0  0  0  0  0  0  0  0  0
    0.5345   -1.3424    0.3203 C   0  0  0  0  0  0  0  0  0  0  0  0
   -0.2050   -1.5319   -0.8649 C   0  0  0  0  0  0  0  0  0  0  0  0
   -0.8420   -2.7499   -1.1225 C   0  0  0  0  0  0  0  0  0  0  0  0
   -0.7654   -3.7968   -0.1960 C   0  0  0  0  0  0  0  0  0  0  0  0
   -0.0520   -3.6150    0.9934 C   0  0  0  0  0  0  0  0  0  0  0  0
    0.5867   -2.4003    1.2541 C   0  0  0  0  0  0  0  0  0  0  0  0
   -1.4120   -5.0306   -0.4577 N   0  0  0  0  0  0  0  0  0  0  0  0
    2.4491    0.0730    1.1875 C   0  0  0  0  0  0  0  0  0  0  0  0
    3.3234   -1.1414    1.3677 C   0  0  0  0  0  0  0  0  0  0  0  0
    4.5473   -1.0495    1.9067 C   0  0  0  0  0  0  0  0  0  0  0  0
    5.0744    0.2524    2.3598 C   0  0  0  0  0  0  0  0  0  0  0  0
    4.2369    1.4548    2.2240 C   0  0  0  0  0  0  0  0  0  0  0  0
    3.0156    1.3806    1.6762 C   0  0  0  0  0  0  0  0  0  0  0  0
    6.2505    0.3461    2.8694 N   0  0  0  0  0  0  0  0  0  0  0  0
    3.2708   -0.2857   -2.3417 Cl  0  0  0  0  0  0  0  0  0  0  0  0
  1 16  2  0  0  0  0
  1  9  1  0  0  0  0
  1  2  1  0  0  0  0
  2  3  2  0  0  0  0
  2  7  1  0  0  0  0
  3  4  1  0  0  0  0
  4  5  2  0  0  0  0
  5  6  1  0  0  0  0
  5  8  1  0  0  0  0
  6  7  2  0  0  0  0
  9 10  2  0  0  0  0
  9 14  1  0  0  0  0
 10 11  1  0  0  0  0
 11 12  2  0  0  0  0
 12 13  1  0  0  0  0
 12 15  1  0  0  0  0
 13 14  2  0  0  0  0
 16 17  1  0  0  0  0
 16 21  1  0  0  0  0
 17 18  2  0  0  0  0
 18 19  1  0  0  0  0
 19 20  1  0  0  0  0
 19 22  2  0  0  0  0
 20 21  2  0  0  0  0
M  END
>  <ActivityOutcome_CPDBAS_Hamster>
inactive

$$$$

 OpenBabel09181215183D

 43 47  0  0  0  0  0  0  0  0999 V2000
    4.8031   -0.7737    3.1819 C   0  0  0  0  0  0  0  0  0  0  0  0
    3.6366   -1.4110    2.9369 C   0  0  0  0  0  0  0  0  0  0  0  0
    3.6826   -2.6138    2.0485 C   0  0  0  0  0  0  0  0  0  0  0  0
    4.9626   -2.9257    1.3989 C   0  0  0  0  0  0  0  0  0  0  0  0
    5.0933   -3.9773    0.4843 C   0  0  0  0  0  0  0  0  0  0  0  0
    6.3343   -4.2754   -0.0790 C   0  0  0  0  0  0  0  0  0  0  0  0
    7.4425   -3.5168    0.2843 C   0  0  0  0  0  0  0  0  0  0  0  0
    7.3212   -2.4616    1.1822 C   0  0  0  0  0  0  0  0  0  0  0  0
    6.0750   -2.1684    1.7376 C   0  0  0  0  0  0  0  0  0  0  0  0
    6.0229   -1.1300    2.6243 O   0  0  0  0  0  0  0  0  0  0  0  0
    8.6822   -3.7812   -0.2161 O   0  0  0  0  0  0  0  0  0  0  0  0
    4.0414   -4.7609    0.0934 O   0  0  0  0  0  0  0  0  0  0  0  0
    2.7278   -3.3654    1.8757 O   0  0  0  0  0  0  0  0  0  0  0  0
    2.4632   -0.9940    3.5411 O   0  0  0  0  0  0  0  0  0  0  0  0
    1.2199   -1.1941    2.8584 C   0  0  2  0  0  0  0  0  0  0  0  0
    1.2731   -0.8336    1.4758 O   0  0  0  0  0  0  0  0  0  0  0  0
    0.0378   -1.2236    0.8217 C   0  0  2  0  0  0  0  0  0  0  0  0
    0.1583   -0.8719   -0.6649 C   0  0  0  0  0  0  0  0  0  0  0  0
    1.1694   -1.7050   -1.2437 O   0  0  0  0  0  0  0  0  0  0  0  0
    1.3687   -1.4265   -2.6366 C   0  0  1  0  0  0  0  0  0  0  0  0
    2.5230   -2.3431   -3.0859 C   0  0  1  0  0  0  0  0  0  0  0  0
    2.7244   -2.2802   -4.6000 C   0  0  1  0  0  0  0  0  0  0  0  0
    1.3908   -2.4397   -5.3399 C   0  0  1  0  0  0  0  0  0  0  0  0
    0.9464   -3.7985   -5.1897 O   0  0  0  0  0  0  0  0  0  0  0  0
    0.2964   -1.5088   -4.7844 C   0  0  1  0  0  0  0  0  0  0  0  0
    0.1722   -1.6953   -3.3650 O   0  0  0  0  0  0  0  0  0  0  0  0
    0.4444   -0.0367   -5.1582 C   0  0  0  0  0  0  0  0  0  0  0  0
    3.3610   -1.0448   -4.9467 O   0  0  0  0  0  0  0  0  0  0  0  0
    3.7497   -1.9655   -2.4322 O   0  0  0  0  0  0  0  0  0  0  0  0
   -1.1710   -0.5046    1.4685 C   0  0  1  0  0  0  0  0  0  0  0  0
   -2.0714   -1.4892    1.9991 O   0  0  0  0  0  0  0  0  0  0  0  0
   -0.7026    0.4590    2.5723 C   0  0  1  0  0  0  0  0  0  0  0  0
    0.1799   -0.2934    3.5852 C   0  0  1  0  0  0  0  0  0  0  0  0
   -0.6662   -1.1042    4.4239 O   0  0  0  0  0  0  0  0  0  0  0  0
    0.0028    1.5687    2.0057 O   0  0  0  0  0  0  0  0  0  0  0  0
    4.9298    0.4066    4.0812 C   0  0  0  0  0  0  0  0  0  0  0  0
    4.2171    0.5135    5.2891 C   0  0  0  0  0  0  0  0  0  0  0  0
    4.3828    1.6300    6.1050 C   0  0  0  0  0  0  0  0  0  0  0  0
    5.2825    2.6305    5.7546 C   0  0  0  0  0  0  0  0  0  0  0  0
    5.4515    3.7121    6.5703 O   0  0  0  0  0  0  0  0  0  0  0  0
    6.0169    2.5410    4.5867 C   0  0  0  0  0  0  0  0  0  0  0  0
    5.8374    1.4346    3.7500 C   0  0  0  0  0  0  0  0  0  0  0  0
    3.6826    1.7850    7.2693 O   0  0  0  0  0  0  0  0  0  0  0  0
  1  2  2  0  0  0  0
  1 10  1  0  0  0  0
  1 36  1  0  0  0  0
  2  3  1  0  0  0  0
  2 14  1  0  0  0  0
  3  4  1  0  0  0  0
  3 13  2  0  0  0  0
  4  5  1  0  0  0  0
  4  9  2  0  0  0  0
  5  6  2  0  0  0  0
  5 12  1  0  0  0  0
  6  7  1  0  0  0  0
  7  8  2  0  0  0  0
  7 11  1  0  0  0  0
  8  9  1  0  0  0  0
  9 10  1  0  0  0  0
 15 16  1  0  0  0  0
 15 33  1  0  0  0  0
 15 14  1  6  0  0  0
 16 17  1  0  0  0  0
 17 30  1  0  0  0  0
 17 18  1  6  0  0  0
 18 19  1  0  0  0  0
 20 21  1  0  0  0  0
 20 26  1  0  0  0  0
 20 19  1  1  0  0  0
 21 22  1  0  0  0  0
 21 29  1  6  0  0  0
 22 23  1  0  0  0  0
 22 28  1  1  0  0  0
 23 25  1  0  0  0  0
 23 24  1  1  0  0  0
 25 26  1  0  0  0  0
 25 27  1  1  0  0  0
 30 32  1  0  0  0  0
 30 31  1  1  0  0  0
 32 33  1  0  0  0  0
 32 35  1  6  0  0  0
 33 34  1  6  0  0  0
 36 37  2  0  0  0  0
 36 42  1  0  0  0  0
 37 38  1  0  0  0  0
 38 39  2  0  0  0  0
 38 43  1  0  0  0  0
 39 41  1  0  0  0  0
 39 40  1  0  0  0  0
 41 42  2  0  0  0  0
M  END
>  <ActivityOutcome_CPDBAS_Hamster>
inactive

$$$$

 OpenBabel09181215183D

  5  4  0  0  0  0  0  0  0  0999 V2000
    1.0113   -0.2072    0.0952 Cl  0  0  0  0  0  0  0  0  0  0  0  0
    2.7284   -0.0367    0.0916 C   0  0  0  0  0  0  0  0  0  0  0  0
    3.3502    1.1454    0.0664 C   0  0  0  0  0  0  0  0  0  0  0  0
    2.5876    2.6807    0.0338 Cl  0  0  0  0  0  0  0  0  0  0  0  0
    3.6661   -1.4909    0.1225 Cl  0  0  0  0  0  0  0  0  0  0  0  0
  1  2  1  0  0  0  0
  2  5  1  0  0  0  0
  2  3  2  0  0  0  0
  3  4  1  0  0  0  0
M  END
>  <ActivityOutcome_CPDBAS_Hamster>
inactive

$$$$

 OpenBabel09181215183D

  6  5  0  0  0  0  0  0  0  0999 V2000
    1.6446   -0.5852   -2.0841 N   0  0  0  0  0  0  0  0  0  0  0  0
    2.9837   -0.4200   -2.1498 C   0  0  0  0  0  0  0  0  0  0  0  0
    3.5572    0.0492   -3.1188 O   0  0  0  0  0  0  0  0  0  0  0  0
    3.5538   -0.8515   -1.0029 O   0  0  0  0  0  0  0  0  0  0  0  0
    4.9822   -0.7274   -0.9375 C   0  0  0  0  0  0  0  0  0  0  0  0
    5.6434   -1.9473   -1.5507 C   0  0  0  0  0  0  0  0  0  0  0  0
  1  2  1  0  0  0  0
  2  4  1  0  0  0  0
  2  3  2  0  0  0  0
  4  5  1  0  0  0  0
  5  6  1  0  0  0  0
M  END
>  <ActivityOutcome_CPDBAS_Hamster>
active

$$$$

 OpenBabel09181215183D

  3  2  0  0  0  0  0  0  0  0999 V2000
    0.9624    0.0719   -0.0623 C   0  0  0  0  0  0  0  0  0  0  0  0
    2.2946    0.0963   -0.0173 C   0  0  0  0  0  0  0  0  0  0  0  0
    3.2757   -0.5724   -1.2494 Cl  0  0  0  0  0  0  0  0  0  0  0  0
  1  2  2  0  0  0  0
  2  3  1  0  0  0  0
M  END
>  <ActivityOutcome_CPDBAS_Hamster>
active

$$$$

 OpenBabel09181215183D

 13 12  0  0  0  0  0  0  0  0999 V2000
    2.2049   -1.5977    2.2454 N   0  0  0  0  0  0  0  0  0  0  0  0
    3.1503   -1.2995    1.7243 N   0  3  0  0  0  0  0  0  0  0  0  0
    4.3212   -0.9897    1.0604 C   0  0  0  0  0  0  0  0  0  0  0  0
    4.8179    0.3251    1.0210 C   0  0  0  0  0  0  0  0  0  0  0  0
    5.9206    0.6233    0.2084 C   0  0  0  0  0  0  0  0  0  0  0  0
    6.5287   -0.3860   -0.5458 C   0  0  0  0  0  0  0  0  0  0  0  0
    6.0614   -1.7013   -0.4585 C   0  0  0  0  0  0  0  0  0  0  0  0
    4.9648   -1.9999    0.3465 C   0  0  0  0  0  0  0  0  0  0  0  0
    0.6112    1.3960   -1.1999 F   0  0  0  0  0  0  0  0  0  0  0  0
    1.7303    0.9888   -0.3733 B   0  5  0  0  0  0  0  0  0  0  0  0
    2.6796    2.0838   -0.2613 F   0  0  0  0  0  0  0  0  0  0  0  0
    1.2400    0.6437    0.9494 F   0  0  0  0  0  0  0  0  0  0  0  0
    2.3817   -0.1614   -0.9815 F   0  0  0  0  0  0  0  0  0  0  0  0
  1  2  3  0  0  0  0
  2  3  1  0  0  0  0
  3  4  2  0  0  0  0
  3  8  1  0  0  0  0
  4  5  1  0  0  0  0
  5  6  2  0  0  0  0
  6  7  1  0  0  0  0
  7  8  2  0  0  0  0
  9 10  1  0  0  0  0
 10 13  1  0  0  0  0
 10 12  1  0  0  0  0
 10 11  1  0  0  0  0
M  CHG  2   2   1  10  -1
M  END
>  <ActivityOutcome_CPDBAS_Hamster>
inactive

$$$$

 OpenBabel09181215183D

 12 12  0  0  0  0  0  0  0  0999 V2000
    0.6930    1.1995   -0.1479 C   0  0  0  0  0  0  0  0  0  0  0  0
    1.4545   -0.1378    0.0534 C   0  0  0  0  0  0  0  0  0  0  0  0
    0.7538   -1.3517   -0.4168 N   0  0  0  0  0  0  0  0  0  0  0  0
   -0.6225   -1.3693    0.1120 C   0  0  0  0  0  0  0  0  0  0  0  0
   -1.4042   -0.0608   -0.1654 C   0  0  0  0  0  0  0  0  0  0  0  0
   -0.7094    1.1465    0.3576 N   0  0  0  0  0  0  0  0  0  0  0  0
   -0.8009    1.2817    1.6677 N   0  0  0  0  0  0  0  0  0  0  0  0
   -0.5312    2.4359    2.0131 O   0  0  0  0  0  0  0  0  0  0  0  0
   -2.8568   -0.1820    0.3235 C   0  0  0  0  0  0  0  0  0  0  0  0
    0.8135   -1.6014   -1.7066 N   0  0  0  0  0  0  0  0  0  0  0  0
    1.9809   -1.7136   -2.0935 O   0  0  0  0  0  0  0  0  0  0  0  0
    0.7190    1.6871   -1.6041 C   0  0  0  0  0  0  0  0  0  0  0  0
  1  2  1  0  0  0  0
  1  6  1  0  0  0  0
  1 12  1  0  0  0  0
  2  3  1  0  0  0  0
  3  4  1  0  0  0  0
  3 10  1  0  0  0  0
  4  5  1  0  0  0  0
  5  6  1  0  0  0  0
  5  9  1  0  0  0  0
  6  7  1  0  0  0  0
  7  8  2  0  0  0  0
 10 11  2  0  0  0  0
M  END
>  <ActivityOutcome_CPDBAS_Hamster>
active

$$$$

 OpenBabel09181215183D

  9  8  0  0  0  0  0  0  0  0999 V2000
   -0.3601    2.1065    0.0143 N   0  0  0  0  0  0  0  0  0  0  0  0
    0.3516    0.9881    0.6745 C   0  0  0  0  0  0  0  0  0  0  0  0
    1.1813    1.4047    1.9125 C   0  0  0  0  0  0  0  0  0  0  0  0
    0.4216    2.3559    2.8258 N   0  3  0  0  0  0  0  0  0  0  0  0
   -0.7926    1.7530    3.4672 C   0  0  0  0  0  0  0  0  0  0  0  0
    1.3284    2.9873    3.8445 C   0  0  0  0  0  0  0  0  0  0  0  0
   -1.3167    1.5589   -0.9607 C   0  0  0  0  0  0  0  0  0  0  0  0
    0.4446    2.9792   -0.5555 N   0  0  0  0  0  0  0  0  0  0  0  0
    0.7999    3.8284    0.2668 O   0  0  0  0  0  0  0  0  0  0  0  0
  1  8  1  0  0  0  0
  1  7  1  0  0  0  0
  1  2  1  0  0  0  0
  2  3  1  0  0  0  0
  3  4  1  0  0  0  0
  4  6  1  0  0  0  0
  4  5  1  0  0  0  0
  8  9  2  0  0  0  0
M  CHG  1   4   1
M  END
>  <ActivityOutcome_CPDBAS_Hamster>
active

$$$$

 OpenBabel09181215183D

 10 10  0  0  0  0  0  0  0  0999 V2000
    0.6356    1.1843   -0.2949 C   0  0  0  0  0  0  0  0  0  0  0  0
    1.3721   -0.0831    0.1921 C   0  0  0  0  0  0  0  0  0  0  0  0
    0.7022   -1.3589   -0.1227 N   0  0  0  0  0  0  0  0  0  0  0  0
    0.9190   -1.7791   -1.3486 N   0  0  0  0  0  0  0  0  0  0  0  0
    0.4867   -2.9253   -1.5144 O   0  0  0  0  0  0  0  0  0  0  0  0
   -0.7148   -1.2698    0.2943 C   0  0  0  0  0  0  0  0  0  0  0  0
   -1.4283   -0.0352   -0.2854 C   0  0  0  0  0  0  0  0  0  0  0  0
   -0.7475    1.1711    0.0961 O   0  0  0  0  0  0  0  0  0  0  0  0
   -2.8529    0.0635    0.2467 C   0  0  0  0  0  0  0  0  0  0  0  0
    0.7806    1.4678   -1.7885 C   0  0  0  0  0  0  0  0  0  0  0  0
  1  2  1  0  0  0  0
  1  8  1  0  0  0  0
  1 10  1  0  0  0  0
  2  3  1  0  0  0  0
  3  6  1  0  0  0  0
  3  4  1  0  0  0  0
  4  5  2  0  0  0  0
  6  7  1  0  0  0  0
  7  8  1  0  0  0  0
  7  9  1  0  0  0  0
M  END
>  <ActivityOutcome_CPDBAS_Hamster>
active

$$$$

 OpenBabel09181215183D

  9  9  0  0  0  0  0  0  0  0999 V2000
   -0.6291   -0.9417    0.0487 O   0  0  0  0  0  0  0  0  0  0  0  0
    0.7463   -0.9425    0.0921 C   0  0  0  0  0  0  0  0  0  0  0  0
    1.1897    0.3580    0.1945 N   0  0  0  0  0  0  0  0  0  0  0  0
    0.1137    1.2760    0.0246 C   0  0  0  0  0  0  0  0  0  0  0  0
   -1.0890    0.3964    0.3015 C   0  0  0  0  0  0  0  0  0  0  0  0
   -1.5774    0.4861    1.7414 C   0  0  0  0  0  0  0  0  0  0  0  0
    2.5241    0.6747    0.0803 N   0  0  0  0  0  0  0  0  0  0  0  0
    2.7298    1.8927    0.0422 O   0  0  0  0  0  0  0  0  0  0  0  0
    1.4053   -1.9681    0.0298 O   0  0  0  0  0  0  0  0  0  0  0  0
  1  2  1  0  0  0  0
  1  5  1  0  0  0  0
  2  3  1  0  0  0  0
  2  9  2  0  0  0  0
  3  4  1  0  0  0  0
  3  7  1  0  0  0  0
  4  5  1  0  0  0  0
  5  6  1  0  0  0  0
  7  8  2  0  0  0  0
M  END
>  <ActivityOutcome_CPDBAS_Hamster>
active

$$$$

 OpenBabel09181215183D

  9  8  0  0  0  0  0  0  0  0999 V2000
    3.5375   -3.3417    2.4309 C   0  0  0  0  0  0  0  0  0  0  0  0
    2.9340   -2.0080    2.0296 C   0  0  0  0  0  0  0  0  0  0  0  0
    3.9309   -0.9977    2.2278 O   0  0  0  0  0  0  0  0  0  0  0  0
    4.7905   -0.7750    1.1896 C   0  0  0  0  0  0  0  0  0  0  0  0
    4.5748   -1.1741    0.0456 O   0  0  0  0  0  0  0  0  0  0  0  0
    5.9486   -0.1125    1.5780 N   0  0  0  0  0  0  0  0  0  0  0  0
    7.0001    0.1621    0.6192 C   0  0  0  0  0  0  0  0  0  0  0  0
    6.1392    0.1709    2.9353 N   0  0  0  0  0  0  0  0  0  0  0  0
    7.2589    0.6204    3.1995 O   0  0  0  0  0  0  0  0  0  0  0  0
  1  2  1  0  0  0  0
  2  3  1  0  0  0  0
  3  4  1  0  0  0  0
  4  6  1  0  0  0  0
  4  5  2  0  0  0  0
  6  8  1  0  0  0  0
  6  7  1  0  0  0  0
  8  9  2  0  0  0  0
M  END
>  <ActivityOutcome_CPDBAS_Hamster>
active

$$$$

 OpenBabel09181215183D

  7  7  0  0  0  0  0  0  0  0999 V2000
   -0.7487   -0.9950   -0.1283 C   0  0  0  0  0  0  0  0  0  0  0  0
    0.5964   -1.0638    0.4320 N   0  0  0  0  0  0  0  0  0  0  0  0
    1.1286    0.2715    0.1508 C   0  0  0  0  0  0  0  0  0  0  0  0
    0.0350    1.2063    0.1013 O   0  0  0  0  0  0  0  0  0  0  0  0
   -1.1493    0.4143    0.2596 C   0  0  0  0  0  0  0  0  0  0  0  0
    1.3084   -2.0781    0.0086 N   0  0  0  0  0  0  0  0  0  0  0  0
    2.4290   -2.0799    0.5305 O   0  0  0  0  0  0  0  0  0  0  0  0
  1  2  1  0  0  0  0
  1  5  1  0  0  0  0
  2  3  1  0  0  0  0
  2  6  1  0  0  0  0
  3  4  1  0  0  0  0
  4  5  1  0  0  0  0
  6  7  2  0  0  0  0
M  END
>  <ActivityOutcome_CPDBAS_Hamster>
active

$$$$

 OpenBabel09181215183D

 14 14  0  0  0  0  0  0  0  0999 V2000
    5.8107   -0.4517    2.1287 O   0  0  0  0  0  0  0  0  0  0  0  0
    6.0970   -1.3574    1.3479 C   0  0  0  0  0  0  0  0  0  0  0  0
    7.0547   -1.2518    0.3503 N   0  0  0  0  0  0  0  0  0  0  0  0
    7.7735    0.0101    0.1879 C   0  0  0  0  0  0  0  0  0  0  0  0
    6.9801    1.0199   -0.6488 C   0  0  0  0  0  0  0  0  0  0  0  0
    7.7368    2.3109   -0.8469 C   0  0  0  0  0  0  0  0  0  0  0  0
    7.3273    3.4854   -0.2023 C   0  0  0  0  0  0  0  0  0  0  0  0
    8.0367    4.6747   -0.3823 C   0  0  0  0  0  0  0  0  0  0  0  0
    9.1629    4.6995   -1.2030 C   0  0  0  0  0  0  0  0  0  0  0  0
    9.5780    3.5373   -1.8493 C   0  0  0  0  0  0  0  0  0  0  0  0
    8.8668    2.3492   -1.6761 C   0  0  0  0  0  0  0  0  0  0  0  0
    7.2100   -2.2915   -0.5763 N   0  0  0  0  0  0  0  0  0  0  0  0
    8.0416   -2.0652   -1.4602 O   0  0  0  0  0  0  0  0  0  0  0  0
    5.4220   -2.5380    1.4447 N   0  0  0  0  0  0  0  0  0  0  0  0
  1  2  2  0  0  0  0
  2 14  1  0  0  0  0
  2  3  1  0  0  0  0
  3 12  1  0  0  0  0
  3  4  1  0  0  0  0
  4  5  1  0  0  0  0
  5  6  1  0  0  0  0
  6  7  2  0  0  0  0
  6 11  1  0  0  0  0
  7  8  1  0  0  0  0
  8  9  2  0  0  0  0
  9 10  1  0  0  0  0
 10 11  2  0  0  0  0
 12 13  2  0  0  0  0
M  END
>  <ActivityOutcome_CPDBAS_Hamster>
active

$$$$

 OpenBabel09181215183D

  6  6  0  0  0  0  0  0  0  0999 V2000
    0.3529    1.0727   -0.1272 C   0  0  0  0  0  0  0  0  0  0  0  0
   -0.9853    0.3261    0.0270 C   0  0  0  0  0  0  0  0  0  0  0  0
   -0.2691   -0.9119   -0.3760 N   0  0  0  0  0  0  0  0  0  0  0  0
   -0.6758   -2.0275    0.1719 N   0  0  0  0  0  0  0  0  0  0  0  0
    0.0059   -2.9751   -0.2338 O   0  0  0  0  0  0  0  0  0  0  0  0
    0.9845   -0.3053    0.1502 C   0  0  0  0  0  0  0  0  0  0  0  0
  1  2  1  0  0  0  0
  1  6  1  0  0  0  0
  2  3  1  0  0  0  0
  3  6  1  0  0  0  0
  3  4  1  0  0  0  0
  4  5  2  0  0  0  0
M  END
>  <ActivityOutcome_CPDBAS_Hamster>
active

$$$$

 OpenBabel09181215183D

  6  4  0  0  0  0  0  0  0  0999 V2000
    1.3957   -0.3844    0.4085 F   0  0  0  0  0  0  0  0  0  0  0  0
    2.7793   -0.1259    0.0429 B   0  5  0  0  0  0  0  0  0  0  0  0
    3.5495   -1.3532    0.1660 F   0  0  0  0  0  0  0  0  0  0  0  0
    2.8370    0.3466   -1.3306 F   0  0  0  0  0  0  0  0  0  0  0  0
    3.3337    0.8853    0.9274 F   0  0  0  0  0  0  0  0  0  0  0  0
    0.3619    2.1233    1.5962 Na  0  3  0  0  0  0  0  0  0  0  0  0
  1  2  1  0  0  0  0
  2  5  1  0  0  0  0
  2  4  1  0  0  0  0
  2  3  1  0  0  0  0
M  CHG  2   2  -1   6   1
M  END
>  <ActivityOutcome_CPDBAS_Hamster>
inactive

$$$$
